75
# total energy = -211.37530431 eVAu      8.68425      8.97190      5.93448        -0.008257     -0.010171     -0.024744
Au      6.35326      8.10346      9.70563        -0.008791      0.014863      0.011828
Au      9.36608      8.26854      8.78533         0.008623      0.010305     -0.005049
Au      7.52738      6.65964      7.50428         0.001844     -0.002567      0.007602
Au      6.05346      8.97106      7.04229         0.001003      0.007629      0.010706
Au      9.50512      6.26035      5.61605         0.026772     -0.006563     -0.012788
Au     16.74442      7.43074      8.37330         0.005953     -0.006755     -0.004827
Au     10.98847      8.74787      4.24832         0.015770      0.004098      0.002996
Au      9.98292      5.24392      8.23922         0.023482      0.007756     -0.003154
Au     16.47772     10.22869      8.85177        -0.001083      0.003141     -0.004077
Au     11.50652      7.80888      6.87347        -0.024450      0.020462      0.011668
Au     12.04781      4.99130      6.36697        -0.012665      0.010958     -0.015546
Au     15.41723      5.14094      9.62310        -0.006869     -0.005779     -0.006714
Au     11.67469      6.07489      3.87341        -0.013228      0.002902      0.000681
Au     14.16930      6.58054      7.49045         0.014932      0.000129      0.014302
Au     11.98001      7.12907      9.57033        -0.002101     -0.016007      0.002938
Au     13.63140      7.69709      4.92247        -0.003937      0.001602     -0.010925
Au     12.74144      4.48853      8.96788        -0.003194      0.000996      0.012436
Au     15.42073      9.04896      6.49913        -0.001532      0.006377      0.000947
Au     13.30269      9.38957      8.34203        -0.001497      0.006883     -0.002791
Au      4.28652     13.14090      8.75885         0.005572     -0.005086      0.006124
Au      6.79944     13.57542      7.55390         0.014040      0.015725     -0.011175
Au      7.63479     11.58940      5.62401         0.018488      0.014868      0.002514
Au      5.09350     11.52548      6.67584        -0.003920      0.002291      0.022105
Au      7.84020     10.75863      8.31636         0.003097      0.005176      0.015887
Au      4.88085     10.43319      9.24670        -0.005119     -0.031976      0.002554
Au      8.64717     14.89863      9.18052         0.007903     -0.005967     -0.026220
Au      9.48338     13.34308      6.86347         0.007228     -0.008965     -0.010286
Au     10.32641     11.33614      4.97178         0.017195      0.003634      0.006190
Au     12.23345     12.88099      6.43687        -0.007931     -0.007969      0.012203
Au     14.75161     11.72991      7.18290         0.003804     -0.002790     -0.001010
Au     11.35529     14.56061      8.57802         0.003116      0.012939     -0.000181
Au     10.69354     10.51892      7.57765         0.009708     -0.010502      0.007250
Au     12.63816     12.12385      9.07957         0.010343     -0.036837      0.017669
Au      9.76832     12.29587      9.72916        -0.020547     -0.001028      0.010733
Au     13.01121     10.38176      5.42363        -0.020615     -0.019318      0.000649
Au      7.55613      9.90220     14.03052         0.010093      0.004324      0.001280
Au      8.03953      5.87630     10.15928         0.006537     -0.000462      0.003429
Au      8.70197      5.34899     12.83188        -0.008471     -0.010066      0.011032
Au      8.36710      9.98462     11.00078        -0.002007      0.008319      0.001390
Au      9.22728      7.61361     14.40464         0.011343      0.005936      0.010405
Au      7.13675      7.62195     12.37796         0.003869     -0.001436     -0.001572
Au     11.20303      9.84236     10.28409         0.002184      0.009811      0.012743
Au     17.32343      8.42403     10.93872         0.005901     -0.003648     -0.012155
Au     14.65502      7.77356     10.22782        -0.040588      0.026338      0.001552
Au     14.01467      6.62325     14.05837         0.001416      0.017280     -0.009641
Au     13.42997      5.09902     11.66801         0.001497      0.000118     -0.003863
Au     16.01936      6.20939     12.16650        -0.006463     -0.014511     -0.004811
Au     10.72134      4.78636     10.92908        -0.002392     -0.003871     -0.015500
Au     15.38094      8.89190     13.02487        -0.029706      0.005053      0.008181
Au     11.95063      8.30181     15.01062         0.000968      0.005834     -0.003632
Au     12.65417      8.20307     12.20220        -0.009427     -0.004432      0.001898
Au     10.47283      9.95164     13.06488        -0.002714     -0.002820      0.007354
Au     11.38193      5.85902     13.49999         0.012336     -0.002976      0.008513
Au      9.92313      7.57603     11.54379         0.009143      0.003944      0.006167
Au      9.83017     10.00111     15.77288         0.007742     -0.004714     -0.014023
Au      6.22670     12.29165     13.41692        -0.017581      0.003275     -0.005674
Au      8.97885     12.37135     12.49477         0.007366     -0.008273      0.001253
Au      5.95773     14.97201      9.95973         0.001816      0.015099     -0.006249
Au      4.37015     12.32770     11.39233         0.000373     -0.008975     -0.002221
Au      5.65458      9.90724     11.87618        -0.001348     -0.018669     -0.017340
Au      8.34653     12.36449     15.24676         0.003548     -0.003132     -0.007673
Au      7.00315     12.44530     10.45899        -0.002475     -0.006522      0.005447
Au      7.85578     14.97677     11.94935        -0.019468      0.016318     -0.003901
Au     12.45618     14.37382     13.38984         0.012822     -0.000249     -0.009562
Au     13.27090     14.38503     10.65112         0.010417     -0.000900      0.002073
Au     14.59192     12.72543     12.59056         0.004444      0.011209      0.002813
Au     13.95644     10.41043     10.99254        -0.002918      0.008250     -0.017003
Au     13.32945     10.58961     13.99743         0.004294     -0.002088      0.016853
Au      9.69897     14.61581     14.02890        -0.010188     -0.004363     -0.005430
Au     10.57480     14.96209     11.30094         0.004763     -0.003410     -0.003263
Au     11.16857     12.25777     14.73020        -0.006362     -0.014255      0.008275
Au     15.35090     12.68987      9.74815         0.001599     -0.000456      0.006117
Au     11.78763     12.14974     11.85768        -0.003070      0.006183     -0.004677
Au     16.61691     11.01749     11.62961        -0.012429     -0.001516     -0.009078
