75
# total energy = -211.28636825 eVAu      7.95214     10.14290      4.29388        -0.002377      0.013311      0.042033
Au      5.14286      8.25455      8.32111        -0.011420     -0.024673      0.004269
Au      7.59736      9.30281      8.97957         0.012346     -0.027773     -0.004031
Au      7.27752      6.41611      8.08707        -0.017873     -0.006016      0.016827
Au      8.52553      8.39143      6.41258        -0.006287     -0.018578     -0.026648
Au      6.45687     10.51083      6.66011        -0.009526      0.001254      0.002996
Au     13.95968      6.64387      6.02629         0.008164      0.006992     -0.018740
Au     12.66285      8.88670      4.92420        -0.000456     -0.007643     -0.012156
Au     15.68430      6.99677      8.28176        -0.014385      0.007982      0.016727
Au     12.80509      7.33506      8.49101         0.003307      0.052189      0.045251
Au     10.06276      8.38843      4.04756        -0.003240      0.037472      0.017634
Au     12.44094      4.71269      7.49489        -0.021420     -0.010876      0.005344
Au     13.06385      9.86858      9.62570         0.015141     -0.037563      0.003465
Au     11.02525      6.77709      6.10882        -0.035557      0.024883     -0.000826
Au     14.19421      5.09853      9.68739        -0.018297      0.016712      0.016577
Au      9.93655      7.45884      8.73748        -0.013616      0.009582     -0.009114
Au     14.54831      9.27746      7.02031         0.013368      0.007112     -0.020440
Au     15.86933      9.47649      9.55975         0.009953     -0.009641     -0.004019
Au      9.63992      4.86797      7.79269        -0.005015      0.009525      0.006705
Au     11.24842      9.51183      7.27310        -0.005600     -0.030002     -0.006108
Au      4.12378     13.61365      8.55186         0.044087     -0.001051     -0.033961
Au      6.13099     13.39296      6.65938         0.004912     -0.006708      0.002011
Au      8.31614     12.72742      5.18201         0.035811      0.002224     -0.015175
Au      4.24630     10.84306      8.51967        -0.007041     -0.014575      0.027361
Au      6.44683     15.04771      8.94248        -0.018658      0.012581     -0.000393
Au      6.71253     12.10604      9.16005        -0.020041     -0.007057     -0.032590
Au      8.65558     14.55268      7.36494         0.040573      0.038135     -0.016440
Au     10.58866     11.03271      4.71100         0.036689      0.030964     -0.004246
Au     13.52276     13.87228      9.96095         0.007427      0.012951      0.011628
Au     10.88874     13.49815      6.00601         0.008763      0.015300      0.007596
Au     13.41111     13.98816      7.16098         0.000286      0.011161     -0.009148
Au     11.16802     14.97169      8.54091        -0.014087     -0.006116     -0.013838
Au      9.04194     11.35941      7.52010        -0.037479     -0.019493     -0.064662
Au     11.65234     12.13036      8.40870        -0.006159      0.028721     -0.036066
Au     14.71844     11.77499      8.29446         0.027718      0.016514     -0.009929
Au     13.06800     11.48135      5.93456         0.013565      0.008808     -0.019038
Au      6.55325      8.60958     13.07355        -0.004156      0.009278      0.021006
Au      8.57707      5.26546     10.35876         0.015570     -0.007522      0.001390
Au      5.08368      9.61444     10.89436        -0.050097      0.013191      0.015806
Au      7.54670      6.00843     12.84947        -0.003561     -0.010226     -0.002410
Au      9.13530      7.87675     14.24708         0.006504      0.022512      0.017307
Au      6.15255      6.99988     10.61285         0.022704     -0.036122      0.022739
Au      8.77235      8.04587     11.29950        -0.003119     -0.019994     -0.030435
Au     10.18747     10.10887      9.85514         0.015384     -0.046599      0.029215
Au     14.76793      7.51047     13.68425        -0.008777     -0.010567      0.014746
Au     15.61770      7.04396     11.07784         0.006740     -0.009742      0.005820
Au     13.22223      5.76870     12.19243        -0.007263     -0.008133      0.001858
Au     13.33588      9.69379     12.44063        -0.003082      0.018227      0.006808
Au     16.21864      9.48402     12.31446        -0.011686      0.015553     -0.017678
Au     10.35522      5.78249     12.58193        -0.002054     -0.019836     -0.021333
Au     13.59912      9.52436     15.27514        -0.033636     -0.016906      0.010215
Au     11.69344      7.84915     11.03093        -0.003207     -0.022421     -0.023974
Au     11.41848      4.99791     10.09773        -0.027706     -0.046663      0.034425
Au     10.48035      9.93079     12.69172         0.008213     -0.000826      0.005905
Au     11.95207      7.58877     14.04982         0.016089      0.023799      0.021183
Au     10.81805      9.87237     15.44902        -0.007871      0.007928     -0.003133
Au      7.36049     13.30385     14.36845        -0.000172      0.015988     -0.003720
Au      8.95225     15.34818     12.87973        -0.006304      0.009700      0.026186
Au      4.91462     13.89891     13.21242         0.006178     -0.036836      0.004782
Au      8.88687     15.65125     10.06187         0.005458     -0.016417      0.008750
Au      5.66732     11.22683     13.19962         0.033839     -0.031672     -0.010792
Au      8.12727     10.52411     14.48954         0.032893     -0.016421     -0.020280
Au      4.37479     12.33757     10.97540        -0.001662      0.000119      0.018361
Au      7.86811     10.80587     11.42548        -0.022667     -0.008780      0.012810
Au      7.04299     13.78520     11.45389        -0.020759      0.022740      0.009689
Au     11.30284     14.44051     14.18686         0.028746      0.043989     -0.028897
Au      9.59289     12.61542     12.77724         0.010319     -0.000520     -0.025656
Au     12.56926     12.12967     15.11564         0.004038     -0.022364     -0.011243
Au     14.99472     11.74689     11.11206        -0.000972      0.018664      0.006815
Au     15.03257     11.51847     13.92383        -0.006078     -0.002937     -0.021067
Au     11.31033     14.86642     11.39504         0.021353     -0.004761      0.020404
Au      9.81146     12.50643     15.56187        -0.036173     -0.035847      0.020440
Au      9.35051     12.87541      9.96658         0.000404      0.028578     -0.001687
Au     11.88987     11.91259     11.29068         0.023183      0.033133      0.035156
Au     13.55810     13.60628     12.79214        -0.010188      0.012106     -0.018364
