75
# total energy = -210.86442164 eVAu      7.93766     10.00837      4.14486         0.014465     -0.041107      0.055021
Au      5.22554      8.42003      8.21347         0.067733     -0.033989      0.037516
Au      7.75250      9.25781      8.98634        -0.073174     -0.034258     -0.010310
Au      7.28610      6.46672      8.02134         0.011207      0.049449     -0.005322
Au      8.69043      8.43161      6.39000        -0.025764     -0.022328     -0.039373
Au      6.54492     10.42919      6.58344         0.034235     -0.057330      0.030861
Au     13.96787      6.69763      6.03336         0.029449     -0.031668     -0.024215
Au     12.65421      8.89414      4.87925         0.085424      0.014141     -0.005929
Au     15.67056      7.04509      8.27805         0.051756     -0.001067     -0.009516
Au     12.85520      7.28534      8.54048        -0.048405      0.086397      0.025608
Au     10.10307      8.28678      3.93353        -0.045305      0.010232      0.041521
Au     12.41829      4.69055      7.51075         0.022767     -0.008609     -0.020258
Au     13.21006      9.84385      9.68057        -0.054177      0.028097     -0.014916
Au     11.08155      6.76269      6.08750        -0.086610      0.023097     -0.002898
Au     14.14363      5.07128      9.71807        -0.002462     -0.036688     -0.003459
Au     10.01362      7.42720      8.75682         0.003954      0.004842     -0.014303
Au     14.61539      9.34522      6.93716        -0.011479      0.030579     -0.009319
Au     15.98572      9.64681      9.42866         0.061004     -0.032904     -0.000929
Au      9.62442      4.89317      7.74571        -0.028259      0.009379     -0.011608
Au     11.44000      9.45004      7.33707        -0.045688      0.006480     -0.002472
Au      3.82183     13.75286      8.46484        -0.026218      0.014230      0.014437
Au      5.91691     13.23782      6.76159         0.021757      0.037137      0.000130
Au      8.13056     12.52176      5.31388         0.062504      0.060378     -0.018073
Au      4.34189     11.03526      8.36306        -0.033022      0.000846      0.028270
Au      6.24960     14.84107      9.17145         0.049999      0.064872     -0.058675
Au      6.90262     12.00719      9.17109        -0.000186      0.000522      0.007331
Au      8.46744     14.31222      7.54381         0.032278      0.025717     -0.008041
Au     10.51231     10.90829      4.80341        -0.007651      0.012615      0.013399
Au     13.53455     13.99506      9.90602        -0.035064     -0.041011     -0.014054
Au     10.73130     13.37275      6.10781         0.011061      0.019901      0.059804
Au     13.30839     14.05542      7.10509        -0.041220     -0.062719      0.027164
Au     11.05156     14.91198      8.58284        -0.010266     -0.040897     -0.008940
Au      9.20438     11.24460      7.56714        -0.033394      0.018089     -0.044115
Au     11.80190     12.08122      8.46891         0.019857      0.047244     -0.006049
Au     14.75492     11.88102      8.20964        -0.055672     -0.019571      0.000164
Au     13.03478     11.50761      5.88004         0.019419     -0.007305      0.075936
Au      6.52935      8.68832     12.99270         0.059984     -0.015337     -0.018032
Au      8.53869      5.28351     10.30822         0.021678      0.021374      0.063868
Au      5.20531      9.83130     10.75443        -0.007856     -0.010882      0.038254
Au      7.43930      6.03490     12.80004         0.048320      0.037350     -0.016192
Au      9.03833      7.80476     14.31095         0.008311      0.035770     -0.055456
Au      6.19978      7.13909     10.52760         0.005626      0.043676      0.034561
Au      8.87730      8.01390     11.36628        -0.024377     -0.036583     -0.024724
Au     10.34453     10.04537      9.92030         0.060749     -0.042065      0.019800
Au     14.69405      7.48093     13.71394         0.011107     -0.011599      0.004082
Au     14.87435      7.47891     10.93169         0.183126     -0.103186      0.039072
Au     13.08486      5.66189     12.27866         0.046385     -0.042646      0.011485
Au     13.37725      9.69753     12.50557        -0.021237      0.003000     -0.024539
Au     16.19828      9.55837     12.25551         0.019451      0.011372      0.015503
Au     10.25395      5.69946     12.61397        -0.029133      0.037049     -0.015653
Au     13.51739      9.47879     15.30433        -0.026269      0.012825     -0.009563
Au     11.75582      7.81339     11.09613        -0.040270      0.013594     -0.031468
Au     11.35003      4.90913     10.12410        -0.017004     -0.021722      0.039228
Au     10.55014      9.90189     12.78901        -0.002498     -0.008110      0.014362
Au     11.86404      7.48010     14.16558        -0.033933      0.010990     -0.027352
Au     10.67804      9.73794     15.56961         0.004491     -0.006650     -0.031608
Au      7.40474     13.33246     14.50372         0.006985     -0.005921     -0.055844
Au      8.99054     15.39655     12.99173         0.004002     -0.023483     -0.016846
Au      5.03149     14.01977     13.22576        -0.093551      0.045181      0.060241
Au      8.76767     15.54251     10.14574         0.066972      0.040217     -0.037606
Au      5.77595     11.36779     13.08919         0.030762     -0.088051      0.001208
Au      8.09524     10.51052     14.54781         0.005997     -0.024399     -0.057980
Au      4.55087     12.61125     10.85247        -0.035046     -0.061681     -0.002421
Au      8.04230     10.77135     11.48252        -0.077237     -0.021387      0.025901
Au      7.21079     13.65598     11.59100        -0.029538      0.016792      0.033473
Au     11.36894     14.53300     14.22200        -0.021550     -0.021158     -0.021517
Au      9.69391     12.63180     12.89029        -0.016390      0.014809     -0.032680
Au     12.26166     11.85523     14.41492         0.018079      0.026271      0.067958
Au     15.07117     11.88564     11.05184        -0.034359      0.005422     -0.024524
Au     15.03018     11.59854     13.86226        -0.018605     -0.008476      0.001008
Au     11.31193     14.95637     11.42249        -0.008858     -0.013068     -0.025632
Au      9.79286     12.47315     15.66878         0.000346      0.008752     -0.016766
Au      9.50982     12.80588     10.04894        -0.004693      0.066884     -0.025165
Au     11.99680     11.91604     11.33641        -0.010569      0.022549      0.012052
Au     13.61728     13.76452     12.70475         0.015745     -0.000267      0.005125
