75
# total energy = -211.35954443 eVAu      8.65693      8.96239      5.87428         0.006912     -0.010785      0.031796
Au      6.36164      8.15233      9.68698         0.008920     -0.022396     -0.008001
Au      9.38394      8.27948      8.79966        -0.017065     -0.015957     -0.024325
Au      7.54760      6.70535      7.48034        -0.013502      0.001718      0.019035
Au      6.05864      9.02409      7.02619         0.005518     -0.031652     -0.001504
Au      9.52507      6.27046      5.58741         0.013370     -0.005347     -0.000789
Au     16.75202      7.42892      8.37306         0.013434     -0.006022      0.003145
Au     10.98623      8.72721      4.24299         0.016257     -0.018032      0.003626
Au     10.00042      5.28079      8.22688        -0.017902     -0.015749     -0.004686
Au     16.48966     10.23201      8.84160         0.001540      0.004615      0.011200
Au     11.50817      7.80908      6.88185        -0.015281      0.008328     -0.019955
Au     12.06669      5.00468      6.35588        -0.010931      0.004950     -0.023160
Au     15.40384      5.12566      9.61934         0.012318      0.000985      0.010874
Au     11.70040      6.06386      3.84949        -0.020652      0.004626      0.009398
Au     14.19691      6.56563      7.48667        -0.020511     -0.001391     -0.007179
Au     11.99301      7.10739      9.56926         0.007663      0.015663      0.018540
Au     13.64001      7.68639      4.93064        -0.017349     -0.017393     -0.014719
Au     12.73679      4.46985      8.95939        -0.001116      0.002821      0.006119
Au     15.43417      9.04687      6.49484        -0.004190      0.003131     -0.000468
Au     13.31696      9.37861      8.33689         0.001218      0.005837      0.018984
Au      4.19645     13.15829      8.70563         0.029023     -0.010346      0.008275
Au      6.75048     13.56808      7.55271        -0.008682     -0.006524      0.005639
Au      7.58859     11.56809      5.64579         0.012509      0.002788     -0.016092
Au      5.02879     11.54236      6.64903        -0.013414      0.009412      0.007354
Au      7.86285     10.75783      8.33759        -0.004622     -0.003251     -0.014184
Au      4.84528     10.45510      9.22694         0.019931      0.007452     -0.001853
Au      8.60115     14.85423      9.19325         0.016619      0.013614     -0.007675
Au      9.44227     13.30732      6.88770         0.025588     -0.002639     -0.019560
Au     10.28974     11.30152      4.99517         0.006918      0.024661     -0.018116
Au     12.19836     12.85225      6.45555        -0.000489      0.009153      0.013286
Au     14.74766     11.72191      7.18370        -0.003766      0.011041     -0.004341
Au     11.32605     14.53908      8.59249         0.020530     -0.006643     -0.016912
Au     10.70076     10.50552      7.59610         0.010113     -0.001478      0.000775
Au     12.65812     12.11143      9.09625        -0.006550      0.021309     -0.009603
Au      9.79776     12.27943      9.75713         0.000648      0.008727     -0.000576
Au     12.98567     10.35335      5.45277        -0.003504      0.019455     -0.016637
Au      7.57824      9.93850     13.99559        -0.007649      0.010180      0.022244
Au      8.04799      5.91577     10.14520        -0.006339      0.005178     -0.008955
Au      8.69533      5.36403     12.82620        -0.002885      0.004599      0.001988
Au      8.40047      9.98023     11.02168         0.002038      0.003162      0.002549
Au      9.23754      7.62219     14.40875        -0.000778      0.003088     -0.004667
Au      7.14675      7.65441     12.36615         0.004765     -0.032617     -0.007671
Au     11.23510      9.82657     10.29704         0.014969      0.010586      0.020388
Au     17.31688      8.42428     10.93494         0.005766     -0.003383      0.003730
Au     14.65502      7.77033     10.22059        -0.009453      0.015488      0.016124
Au     14.01810      6.61230     14.05563         0.006355     -0.006569      0.022637
Au     13.41947      5.08364     11.66452         0.011747      0.003564      0.004086
Au     16.00667      6.20340     12.15428         0.007685     -0.004142     -0.000942
Au     10.71240      4.77988     10.92181        -0.005194      0.008598     -0.001456
Au     15.37353      8.89828     13.03280         0.005785     -0.010135      0.006383
Au     11.96795      8.29903     15.02148        -0.017310      0.009159      0.004099
Au     12.66980      8.19165     12.21130        -0.003738      0.011211     -0.021603
Au     10.51154      9.94568     13.08295        -0.003144     -0.005630     -0.008257
Au     11.38519      5.84541     13.50592        -0.011875      0.005378     -0.005397
Au      9.95040      7.57297     11.55892        -0.008939     -0.010675      0.005541
Au      9.83290     10.00966     15.77281         0.007167     -0.011773      0.009528
Au      6.24180     12.34782     13.39106        -0.002470     -0.015899      0.002020
Au      9.01553     12.36610     12.52346        -0.001063      0.004850     -0.000567
Au      5.90370     14.90838      9.98507        -0.014176      0.007507     -0.009440
Au      4.39863     12.38837     11.34594         0.007670     -0.010208      0.007375
Au      5.66707      9.95089     11.84570        -0.014722      0.005414      0.005066
Au      8.33752     12.37757     15.25985         0.005317      0.000900     -0.007098
Au      7.04626     12.42745     10.47081        -0.017907      0.000271      0.002727
Au      7.81478     14.94906     11.96584         0.000650      0.004669      0.016537
Au     12.45013     14.38421     13.38443         0.006949     -0.000494      0.015327
Au     13.26519     14.38406     10.65870         0.005246     -0.015358     -0.020530
Au     14.60399     12.72977     12.59950        -0.009401      0.016932     -0.003696
Au     13.97196     10.40804     10.99744        -0.006723     -0.009222     -0.013559
Au     13.34303     10.60446     14.03086        -0.003453     -0.012509     -0.005101
Au      9.68878     14.63891     14.03283         0.002110     -0.016881      0.004412
Au     10.54229     14.92767     11.30249         0.015554      0.017222      0.012530
Au     11.16888     12.27350     14.74448        -0.001580     -0.004391     -0.003324
Au     15.36550     12.69607      9.74954        -0.028325      0.007335     -0.004153
Au     11.81815     12.13715     11.87823        -0.002335      0.006953     -0.011041
Au     16.62072     11.01794     11.62179         0.020185      0.002967      0.014453
