75
# total energy = -211.20408703 eVAu      8.26857      8.96137      4.73086         0.025889      0.019289      0.071940
Au      5.62934      8.23043      8.87409        -0.068609     -0.031441     -0.092639
Au      8.61688      7.60949      9.81932         0.083847      0.113553      0.043184
Au      6.72358      5.65279      9.36314         0.059840      0.083673      0.009724
Au      7.37051      7.19763      6.93572         0.023270      0.037020      0.024904
Au      6.57908      9.91549      6.68894         0.080892     -0.009645      0.014561
Au     14.91840      8.67889      7.73523        -0.007541     -0.067981     -0.004409
Au     11.05172      9.77611      5.15352         0.015687     -0.026612      0.017661
Au     15.83902      6.81350      9.61012        -0.023403     -0.001722      0.006884
Au     13.22303      8.11972     10.01268         0.039889     -0.033565     -0.003171
Au      9.99006      7.06822      5.65699         0.015336      0.005203      0.019593
Au     11.55057      4.39574      9.05961         0.047618     -0.015330      0.004034
Au     11.71646      5.11569      6.40708         0.013636      0.034085      0.038255
Au     13.80766      5.96424      7.96721         0.024574     -0.028237      0.000432
Au     11.13134      7.25617      8.34697         0.014131      0.027460      0.033063
Au     12.81577      7.80246      6.01313         0.003450     -0.026502      0.019894
Au      9.34511      9.26905      7.47902        -0.006222      0.038484      0.103370
Au      9.11868      5.23412      7.79816         0.060733      0.022952      0.015878
Au      5.15187     13.79571      9.23630         0.021084      0.004987      0.013904
Au      6.91073     12.62850      7.35381        -0.090818      0.072120     -0.099162
Au      4.86217     10.96916      8.51678         0.000305      0.058994      0.042155
Au      7.61610     10.40075      9.44677         0.043967     -0.005293     -0.022734
Au      7.38493     15.25015      8.23306        -0.015535     -0.010728      0.029737
Au      7.88140     13.21809     10.16700        -0.031867     -0.039949      0.021068
Au      8.84495     11.51181      5.61933        -0.010274     -0.013634      0.015476
Au     11.56596     12.38982      6.23041        -0.053328     -0.050702     -0.017118
Au     12.44219     13.08501      8.87731        -0.005316      0.051098     -0.012348
Au     10.16631     14.79405      9.07002        -0.075515      0.016356      0.018291
Au      9.80246     11.92667      8.42600        -0.048760      0.024764      0.061956
Au     14.61201     11.34299      8.72411        -0.055639     -0.115634      0.047675
Au     12.06666     10.06811      8.19483        -0.078247     -0.025074      0.065336
Au     13.68114     10.57624      6.06701        -0.040766     -0.064311      0.034299
Au      9.31261     14.06104      6.54648        -0.064619     -0.017980      0.016331
Au      7.29230      9.79923     14.59242        -0.010134      0.026148      0.117173
Au      3.89535      9.40853     10.78735         0.002692      0.043754     -0.016655
Au      4.87680      6.82742     11.22446         0.062833      0.044308     -0.026553
Au      6.72167      8.91635     11.68448        -0.010391      0.014653     -0.001981
Au      8.33615      7.17430     14.90896         0.035251      0.060441     -0.076448
Au      5.66362      7.56993     13.93094         0.060284      0.043330     -0.033644
Au      7.44386      6.11768     12.24208        -0.041929     -0.088078      0.035861
Au     10.40494      9.68850     10.40136        -0.054277     -0.013264      0.019661
Au      9.03917      4.54625     10.53559         0.051084      0.017282     -0.011161
Au     14.15734      7.41841     14.80055        -0.010839      0.010018     -0.051296
Au     15.73637      9.45067     10.54722         0.004244     -0.056589      0.039753
Au     13.74470      5.15890     10.67296         0.072356     -0.081748      0.001954
Au     12.78491      5.55999     13.30321         0.040757     -0.022553     -0.018539
Au     12.39023      8.44415     12.67626        -0.007970      0.006706     -0.043591
Au     15.04478      7.13130     12.22029         0.024650     -0.027595      0.002918
Au      9.87842      5.33835     13.42182         0.047429      0.012972     -0.025018
Au     14.92427      9.79178     13.26345        -0.003089     -0.033014     -0.003448
Au     12.79008      9.70987     15.28579         0.003769     -0.008041     -0.023738
Au     11.02943      6.56004     11.07821         0.066928     -0.042920     -0.008625
Au     11.46177      3.74124     11.72598         0.035341      0.010547     -0.012486
Au      9.45566      8.40084     12.70346         0.034628      0.067124     -0.128126
Au     11.22450      7.22096     15.03953         0.040754      0.004429     -0.053197
Au      9.89362      9.57799     15.61213         0.002086      0.017502     -0.047056
Au      6.43913     12.45716     13.94020        -0.028868      0.031597     -0.060160
Au      8.40369     11.14371     12.15434         0.049067      0.000643     -0.001105
Au      3.13641     12.11911     10.33008         0.026495      0.025357      0.006904
Au      5.93704     14.53644     11.93660         0.009906     -0.003781     -0.023487
Au      8.54402     14.16939     12.97034        -0.037081      0.122216      0.082886
Au      3.89786     12.83730     12.94813         0.016214      0.015975     -0.030583
Au      4.68916     10.15781     13.51885         0.005243      0.045914     -0.010420
Au      5.75281     11.63126     11.22125        -0.030172      0.018665      0.003464
Au      8.14741     15.96958     10.85549        -0.026137     -0.021369     -0.010214
Au     11.21969     13.75188     13.78542        -0.014547     -0.017186      0.000092
Au     13.11652     13.85272     11.56264        -0.030433     -0.029447      0.061985
Au     11.52333     12.03213     15.92490        -0.016523     -0.020254     -0.074818
Au     12.87889     10.83419     10.98699        -0.096323     -0.041868      0.004015
Au     10.80315     15.46733     11.67326        -0.061405     -0.015558      0.028989
Au     11.02288     10.85183     13.24828        -0.062369     -0.012991     -0.090334
Au     15.25518     12.06118     11.47830        -0.042521     -0.066245      0.026903
Au      8.96707     12.16858     14.90174         0.063683     -0.026633     -0.046496
Au     10.57315     12.65367     11.07576        -0.076492     -0.002299     -0.033123
Au     13.57657     12.15819     13.83696         0.008116     -0.033843     -0.008279
