75
# total energy = -210.82577850 eVAu      7.92840     10.00412      4.14335         0.055836     -0.035430      0.064175
Au      5.22093      8.41905      8.20383         0.140961     -0.047289      0.073774
Au      7.75845      9.25904      8.99313        -0.144374     -0.071514     -0.049597
Au      7.28843      6.46666      8.00568        -0.017374      0.081696      0.036282
Au      8.70182      8.44376      6.39258        -0.042656     -0.028096     -0.030238
Au      6.54463     10.42703      6.58383         0.048739     -0.072437      0.017255
Au     13.96334      6.69695      6.03073         0.049937     -0.034108     -0.034131
Au     12.65080      8.89492      4.87459         0.103396      0.006076     -0.016815
Au     15.66913      7.04778      8.27818         0.058941     -0.015338     -0.007124
Au     12.85380      7.27758      8.53767        -0.069541      0.123521      0.062766
Au     10.10175      8.27664      3.93348        -0.064452      0.032859      0.038997
Au     12.42343      4.68668      7.50652         0.015102     -0.026312     -0.019452
Au     13.21376      9.84574      9.67805        -0.103847      0.013387     -0.014635
Au     11.08240      6.76292      6.09521        -0.096519      0.020713     -0.022980
Au     14.14711      5.06874      9.71938         0.003881     -0.036235     -0.002830
Au     10.01121      7.42555      8.76202         0.019753      0.030810     -0.013177
Au     14.60111      9.34025      6.94639         0.002271      0.068243     -0.030255
Au     15.98689      9.65295      9.42741         0.079161     -0.041491     -0.003202
Au      9.62331      4.89397      7.74330        -0.014189     -0.002444     -0.022012
Au     11.44468      9.44836      7.33094        -0.056454      0.007937      0.053218
Au      3.81497     13.75669      8.46223        -0.013765     -0.012069      0.014061
Au      5.91380     13.23044      6.76081        -0.012827      0.057308      0.001406
Au      8.12812     12.52335      5.31044         0.086247      0.032126     -0.009063
Au      4.34438     11.03489      8.35214        -0.050247      0.033460      0.041084
Au      6.24391     14.83270      9.18252         0.036865      0.078559     -0.062653
Au      6.90535     12.00621      9.16438         0.001838     -0.018417      0.027842
Au      8.45729     14.29514      7.55625         0.094603      0.043740     -0.028286
Au     10.51101     10.90002      4.80929        -0.044446      0.025022     -0.002625
Au     13.54131     14.00300      9.90450        -0.058427     -0.071034     -0.021346
Au     10.73266     13.37635      6.10081         0.009022      0.006800      0.100414
Au     13.31581     14.06867      7.09729        -0.085900     -0.139896      0.072297
Au     11.05430     14.91868      8.58173        -0.021904     -0.087368     -0.001728
Au      9.20600     11.24460      7.56550        -0.024413      0.027541     -0.068541
Au     11.80624     12.07938      8.46427         0.055125      0.100270     -0.026127
Au     14.76542     11.88801      8.20834        -0.110286     -0.008047     -0.018928
Au     13.03796     11.51044      5.86830         0.027692      0.020286      0.128785
Au      6.52257      8.68435     12.99998         0.082807      0.031364     -0.053199
Au      8.53192      5.28293     10.30131         0.032829      0.036381      0.104862
Au      5.21820      9.83828     10.74388        -0.001235     -0.021458      0.079015
Au      7.43428      6.02584     12.80536         0.079065      0.087813     -0.051382
Au      9.03664      7.80153     14.32100         0.008338      0.043454     -0.092161
Au      6.19775      7.13621     10.52473         0.025203      0.061712      0.015430
Au      8.87385      8.00928     11.36955        -0.019384     -0.038110      0.011026
Au     10.34259     10.04940      9.91798         0.115842     -0.088157      0.039729
Au     14.69503      7.48205     13.71682         0.014595     -0.004381     -0.014050
Au     14.83756      7.49767     10.92281         0.196809     -0.099974      0.060879
Au     13.08260      5.66063     12.28266         0.055118     -0.056576      0.012850
Au     13.37468      9.69979     12.50938         0.001212     -0.003448     -0.012522
Au     16.19973      9.55550     12.25501         0.005625      0.006693      0.022829
Au     10.25347      5.69582     12.61996        -0.055236      0.050701     -0.042981
Au     13.52126      9.48209     15.31369        -0.028849      0.008155     -0.031699
Au     11.75465      7.81021     11.10240        -0.063616      0.056940     -0.072326
Au     11.35206      4.92612     10.11591        -0.042157     -0.039196      0.068615
Au     10.54896      9.90115     12.79347        -0.018408     -0.028696     -0.001132
Au     11.86820      7.48834     14.16297        -0.058455      0.002786     -0.011281
Au     10.67866      9.73766     15.57973         0.000482     -0.014272     -0.056446
Au      7.40513     13.33483     14.50677         0.070949     -0.020002     -0.025327
Au      8.98589     15.39892     12.99560         0.009884     -0.042156     -0.018329
Au      5.04817     14.01946     13.21767        -0.183465      0.139020      0.104155
Au      8.76572     15.54081     10.14837         0.077137      0.022144     -0.039206
Au      5.77285     11.37714     13.09340         0.084805     -0.227536     -0.025301
Au      8.10056     10.51532     14.54786        -0.016732     -0.040837     -0.069964
Au      4.56113     12.61795     10.84913        -0.066621     -0.076006     -0.047882
Au      8.04580     10.77046     11.48364        -0.108271     -0.035610      0.058115
Au      7.21726     13.64219     11.59226         0.031234      0.037590      0.016318
Au     11.36831     14.53519     14.22858        -0.020608     -0.033294     -0.025541
Au      9.69902     12.63132     12.89335        -0.029537      0.029690     -0.011531
Au     12.25501     11.84714     14.39600         0.020972      0.039067      0.082754
Au     15.06624     11.87962     11.05600        -0.031643      0.037285     -0.033301
Au     15.03206     11.59844     13.86704        -0.022820     -0.011235     -0.007205
Au     11.30693     14.94419     11.42965         0.002644      0.002231     -0.060014
Au      9.79850     12.47381     15.67905        -0.017661      0.014718     -0.051073
Au      9.51209     12.80289     10.04751         0.018355      0.096398     -0.029535
Au     12.00063     11.91714     11.33544        -0.012400      0.027474     -0.011497
Au     13.62076     13.76849     12.70724         0.005440     -0.013505     -0.008298
