75
# total energy = -211.11359385 eVAu      7.94891     10.04749      4.23564         0.000862      0.007657     -0.003907
Au      5.19056      8.39387      8.29379         0.016171     -0.004177      0.017237
Au      7.72749      9.27284      8.98195        -0.010765      0.001007     -0.026801
Au      7.28477      6.47740      8.09297        -0.009078     -0.036637     -0.012117
Au      8.56958      8.32408      6.35511         0.026550      0.045934      0.042099
Au      6.53215     10.45016      6.66018         0.003623      0.006897     -0.029498
Au     13.97205      6.64519      6.03823         0.026234      0.003358      0.004857
Au     12.71525      8.87103      4.90452        -0.059067     -0.006491      0.031592
Au     15.70639      7.00799      8.29411         0.009270      0.015474     -0.014402
Au     12.87140      7.38266      8.50163        -0.043804     -0.017339     -0.032388
Au     10.12234      8.36342      3.97238        -0.030828     -0.005677      0.006096
Au     12.39320      4.75949      7.52389         0.022314     -0.032950      0.010590
Au     13.17888      9.87114      9.66547        -0.049087      0.000840     -0.002435
Au     11.02881      6.77072      6.07496         0.011645     -0.005141      0.006276
Au     14.14677      5.13086      9.69174         0.019977     -0.017104      0.018535
Au     10.01825      7.43439      8.72338        -0.042866     -0.002169     -0.002992
Au     14.66163      9.30330      6.95417        -0.044408     -0.031714      0.034880
Au     15.97342      9.52354      9.49430        -0.061606     -0.028568      0.024174
Au      9.60848      4.86635      7.78309         0.012180      0.036255     -0.014451
Au     11.32499      9.48111      7.28462         0.000873      0.010905      0.049464
Au      3.95999     13.75108      8.53666        -0.001176     -0.013232     -0.016929
Au      6.00068     13.28959      6.75142         0.023284      0.051916      0.004808
Au      8.18723     12.60797      5.26737         0.021553      0.000712      0.027830
Au      4.29935     11.00367      8.44943        -0.021072     -0.032304      0.021959
Au      6.33578     15.01697      9.04599         0.018354     -0.005154     -0.051530
Au      6.80882     12.07373      9.20175        -0.008497      0.006425      0.003042
Au      8.52643     14.46756      7.44981         0.019899     -0.025444     -0.013795
Au     10.54186     10.96396      4.80695         0.010913      0.023790     -0.036974
Au     13.50757     13.93863      9.91874         0.028176      0.002024      0.032984
Au     10.77221     13.41241      6.10499         0.012569      0.042109     -0.007720
Au     13.32940     14.00213      7.13597         0.004118     -0.008278      0.001102
Au     11.07384     14.94388      8.55873         0.019217     -0.010645     -0.026292
Au      9.12876     11.30451      7.56475        -0.033275      0.028751      0.019591
Au     11.71757     12.10043      8.48674         0.013900      0.026251     -0.024008
Au     14.74251     11.80659      8.24352         0.014082      0.005178      0.008961
Au     13.04968     11.46051      5.95013         0.011161      0.024436     -0.023043
Au      6.55279      8.65779     13.01023        -0.007530     -0.049070      0.001668
Au      8.56371      5.25734     10.33756        -0.006600     -0.006690      0.026764
Au      5.08666      9.74982     10.84203         0.014193     -0.031950     -0.026889
Au      7.49097      6.02056     12.80848         0.017834      0.004567      0.015824
Au      9.07672      7.84052     14.24391         0.013101     -0.013003      0.035604
Au      6.16723      7.11418     10.58948        -0.009732     -0.028585     -0.000509
Au      8.85716      8.00148     11.30146        -0.004125      0.042605      0.004712
Au     10.33009     10.06515      9.92336        -0.058203      0.007330     -0.019397
Au     14.72456      7.48765     13.66578         0.014374     -0.002464     -0.008719
Au     15.59628      7.06301     11.07490        -0.018577      0.011557     -0.028483
Au     13.19002      5.67406     12.22314        -0.003970      0.063932      0.007195
Au     13.35861      9.66094     12.44301        -0.028900      0.020666      0.001249
Au     16.19704      9.51281     12.26027        -0.010551     -0.024860      0.025186
Au     10.31372      5.71884     12.58340        -0.005127      0.005867     -0.000544
Au     13.50611      9.48751     15.25235         0.043085     -0.012884      0.001865
Au     11.76031      7.78288     11.04245        -0.003397      0.027533     -0.017584
Au     11.37387      4.84323     10.14249         0.046516      0.084563     -0.014461
Au     10.54093      9.91144     12.75256        -0.031823      0.035365     -0.025509
Au     11.89260      7.50935     14.08203         0.042334      0.013952     -0.030381
Au     10.69869      9.78546     15.52243         0.032364      0.044753     -0.048073
Au      7.35238     13.35216     14.39219         0.020355     -0.014673      0.024960
Au      8.96071     15.38787     12.91758         0.003882     -0.009076      0.009286
Au      4.87896     13.93056     13.28173         0.047166     -0.006361     -0.030681
Au      8.81174     15.63281     10.10437         0.020821     -0.022910     -0.007823
Au      5.72605     11.29814     13.12787        -0.012463      0.034989      0.004611
Au      8.11655     10.52515     14.47250        -0.003450      0.003908      0.020397
Au      4.43721     12.50176     10.92996        -0.011522     -0.053511      0.015073
Au      7.96239     10.77448     11.44014        -0.004324      0.006482      0.000831
Au      7.03907     13.80538     11.52974         0.031815     -0.025618     -0.013661
Au     11.32201     14.50385     14.16582        -0.010550      0.006342      0.002554
Au      9.61350     12.63323     12.81532         0.009274     -0.021262      0.000230
Au     12.36128     11.97748     14.69932         0.032215      0.028099      0.047365
Au     15.01855     11.82453     11.05622         0.016259     -0.052452      0.028268
Au     14.98587     11.54634     13.85396         0.018758     -0.016361      0.002937
Au     11.31581     14.95425     11.39071        -0.023559     -0.031666      0.004233
Au      9.75940     12.51224     15.59198        -0.017219      0.013636     -0.021240
Au      9.40197     12.86538     10.02541         0.013026     -0.012079      0.005507
Au     11.95876     11.94363     11.38193        -0.036595     -0.016898     -0.042931
Au     13.62334     13.75357     12.73112        -0.060547     -0.060671      0.023771
