75
# total energy = -211.13167013 eVAu      8.26456      8.96122      4.73175         0.033403      0.021962      0.049583
Au      5.65156      8.23622      8.89028        -0.129821     -0.034189     -0.115391
Au      8.61026      7.60755      9.81884         0.104699      0.069860      0.001396
Au      6.71478      5.64619      9.36464         0.073624      0.071791     -0.000556
Au      7.36945      7.20029      6.94205         0.026217      0.014922     -0.011835
Au      6.57985      9.90949      6.68604         0.041478      0.035278      0.042736
Au     14.91138      8.68792      7.74308         0.014752     -0.068508     -0.040830
Au     11.04736      9.77942      5.15933         0.035576     -0.029778      0.005087
Au     15.84305      6.81743      9.60784        -0.067873     -0.011829      0.023174
Au     13.22103      8.13512     10.00890        -0.039253     -0.125807      0.047614
Au      9.98660      7.07293      5.65720         0.043478     -0.035184      0.026134
Au     11.54014      4.40067      9.05811         0.077144     -0.002431      0.024624
Au     11.71527      5.11081      6.40219        -0.006064      0.073172      0.056908
Au     13.80148      5.97303      7.96553         0.025261     -0.039664      0.031051
Au     11.12046      7.26461      8.34070         0.086488     -0.028560      0.099669
Au     12.81226      7.80721      6.01960         0.003535     -0.019227     -0.006277
Au      9.34480      9.26753      7.48841         0.004153      0.033713     -0.002562
Au      9.11205      5.23786      7.80197         0.071109      0.006970     -0.006095
Au      5.15523     13.79291      9.23345         0.008446     -0.015636      0.047282
Au      6.92736     12.61698      7.37426        -0.104950      0.070807     -0.120898
Au      4.85780     10.96442      8.51624         0.056731      0.052513      0.042738
Au      7.63309     10.38744      9.43985        -0.082731      0.110397      0.053210
Au      7.38303     15.24815      8.23080         0.028416     -0.012120      0.034572
Au      7.89680     13.21845     10.16239        -0.106622     -0.075142      0.052146
Au      8.84569     11.50938      5.62177        -0.003769     -0.002297      0.014002
Au     11.57134     12.39278      6.24546        -0.050687     -0.056575     -0.092261
Au     12.42971     13.06445      8.88649         0.076511      0.121700     -0.055120
Au     10.18175     14.77994      9.06937        -0.144240      0.080544      0.019820
Au      9.81147     11.91556      8.43023        -0.108110      0.050753      0.016129
Au     14.60639     11.35756      8.72178         0.015693     -0.139071      0.032957
Au     12.07340     10.07131      8.19055        -0.107431     -0.059555      0.082707
Au     13.68583     10.58469      6.06307        -0.040905     -0.081421      0.027556
Au      9.32305     14.05980      6.54409        -0.096976     -0.012163      0.045538
Au      7.30231      9.79352     14.56673        -0.047486      0.042038      0.165465
Au      3.90154      9.40410     10.78861        -0.002728      0.059898     -0.003836
Au      4.87836      6.82403     11.22825         0.024945      0.046238     -0.030225
Au      6.74339      8.90571     11.68108        -0.139074      0.124135      0.006719
Au      8.32877      7.16898     14.91547         0.052980      0.053187     -0.071639
Au      5.66356      7.56490     13.92905         0.030073      0.051852     -0.013706
Au      7.45072      6.14919     12.23144        -0.027034     -0.219389      0.067788
Au     10.39748      9.69059     10.40297         0.036962     -0.028319     -0.003171
Au      9.03785      4.55552     10.53853         0.019266     -0.024651     -0.023114
Au     14.15938      7.41659     14.80700        -0.043307      0.038132     -0.073252
Au     15.72523      9.45567     10.54068         0.041891     -0.041566      0.054487
Au     13.73326      5.17205     10.67265         0.058357     -0.066553      0.001810
Au     12.77588      5.56643     13.30705         0.054678     -0.023798     -0.054341
Au     12.38297      8.45590     12.68228         0.027703     -0.083057     -0.102587
Au     15.03908      7.14060     12.22056         0.011258     -0.052587     -0.018173
Au      9.87450      5.34517     13.41599         0.031631     -0.013088      0.018211
Au     14.91733      9.79323     13.25830         0.010729     -0.013401      0.012185
Au     12.78645      9.71442     15.28514         0.027778     -0.049040     -0.022851
Au     11.00775      6.56833     11.08218         0.195958     -0.007105     -0.053648
Au     11.45217      3.74102     11.72879         0.072560      0.038241     -0.031428
Au      9.45059      8.40035     12.70806         0.078246      0.045431     -0.086582
Au     11.21638      7.22333     15.03842         0.063142     -0.000847     -0.036169
Au      9.88930      9.57749     15.60678         0.026083      0.014793     -0.010604
Au      6.43642     12.45383     13.94517         0.018536      0.018453     -0.085288
Au      8.42371     11.13313     12.15714        -0.115239      0.080938     -0.048583
Au      3.13182     12.11236     10.32384         0.076144      0.043171      0.056293
Au      5.94169     14.53474     11.93836        -0.014600     -0.035850     -0.031517
Au      8.54959     14.14742     12.95275        -0.038956      0.134460      0.107178
Au      3.89793     12.83502     12.95808         0.031950      0.000573     -0.099382
Au      4.69456     10.15248     13.51681        -0.009204      0.054596     -0.024317
Au      5.75620     11.62824     11.22114         0.027518      0.014537     -0.012545
Au      8.14718     15.96922     10.85908         0.009045     -0.031739     -0.034405
Au     11.21934     13.74855     13.78442        -0.009052     -0.007553     -0.007390
Au     13.11309     13.84738     11.54774         0.011094      0.002108      0.118430
Au     11.51946     12.03216     15.92632         0.001325     -0.008926     -0.063266
Au     12.88621     10.83806     10.98513        -0.123885     -0.076166      0.022922
Au     10.81337     15.46606     11.67036        -0.103653     -0.019775      0.020831
Au     11.01804     10.84612     13.24234         0.001322      0.029455     -0.015307
Au     15.26000     12.06973     11.47481        -0.037220     -0.077476      0.038466
Au      8.97013     12.16469     14.90630         0.009998      0.003863     -0.067247
Au     10.58032     12.64085     11.07354        -0.107858      0.051620      0.016210
Au     13.56955     12.15885     13.83341         0.030839     -0.032058     -0.007228
