75
# total energy = -211.24193674 eVAu      7.94157     10.09426      4.26829         0.028729      0.049118      0.024257
Au      5.16679      8.30836      8.29700        -0.006551     -0.013771      0.043073
Au      7.64551      9.28805      8.97722        -0.012796      0.017663     -0.003672
Au      7.27277      6.43176      8.08425         0.000454     -0.010678      0.011155
Au      8.56435      8.38631      6.40240        -0.046523     -0.012619     -0.017272
Au      6.49330     10.50328      6.66257        -0.019423     -0.027554     -0.019145
Au     13.98356      6.63214      6.02105        -0.028219      0.012946      0.018023
Au     12.66245      8.86656      4.94537         0.005207      0.024919     -0.038145
Au     15.70415      6.99153      8.27533        -0.010778      0.013468      0.019232
Au     12.82847      7.34573      8.48381        -0.032446      0.013663      0.012085
Au     10.07473      8.36774      4.02123         0.006958      0.029136      0.000894
Au     12.43781      4.71450      7.50565        -0.020451      0.021105      0.000423
Au     13.08967      9.86167      9.63124         0.006719      0.020371      0.004623
Au     11.02925      6.76487      6.10088         0.008040      0.010389     -0.010917
Au     14.19238      5.12145      9.68917        -0.012610     -0.020087      0.011177
Au      9.95630      7.45435      8.72775         0.010064     -0.011163      0.030315
Au     14.56548      9.28212      7.01498         0.021654     -0.003509     -0.012323
Au     15.89471      9.46322      9.55330        -0.019010      0.043733     -0.003110
Au      9.63336      4.87630      7.77795        -0.004557     -0.011950      0.018573
Au     11.25860      9.51362      7.29205         0.032804      0.000987     -0.018501
Au      4.04407     13.68066      8.55843         0.072834     -0.064441     -0.023801
Au      6.07130     13.35638      6.70180         0.012219      0.040507      0.006740
Au      8.26050     12.67341      5.22294         0.050409      0.002201     -0.035505
Au      4.26503     10.90762      8.48842        -0.015945     -0.001602      0.033336
Au      6.39156     15.05212      8.97210         0.053640     -0.020728     -0.023111
Au      6.73853     12.10008      9.17404        -0.010063      0.001178      0.015896
Au      8.61137     14.51443      7.39895         0.008489      0.020022     -0.007048
Au     10.57441     11.00399      4.73965        -0.014418      0.026793      0.000195
Au     13.53656     13.89399      9.95492        -0.030194      0.003072     -0.019201
Au     10.85534     13.46786      6.03300        -0.004216      0.018254      0.009152
Au     13.40872     14.00446      7.15471        -0.056849     -0.046754      0.012132
Au     11.14289     14.96642      8.54052        -0.002679     -0.012948      0.003417
Au      9.06971     11.36683      7.54903        -0.002053     -0.035308     -0.010324
Au     11.68028     12.13725      8.42830         0.002941     -0.010462     -0.004046
Au     14.73547     11.78025      8.28426        -0.015256      0.009855     -0.012837
Au     13.06410     11.48213      5.93234         0.004266     -0.007660      0.019890
Au      6.55150      8.62315     13.06022         0.008375     -0.034904     -0.025111
Au      8.57943      5.26740     10.35049        -0.021147     -0.019356      0.018626
Au      5.09202      9.66408     10.86528        -0.009430     -0.026141      0.018963
Au      7.53255      6.00159     12.85640         0.005550      0.043877     -0.042490
Au      9.12164      7.87077     14.26167        -0.012276     -0.031422     -0.029583
Au      6.16496      7.03191     10.60646        -0.022761     -0.003460      0.007032
Au      8.78870      8.01645     11.29738         0.021734      0.048736      0.025650
Au     10.22483     10.09711      9.88067        -0.007282     -0.000172     -0.005628
Au     14.77072      7.48875     13.67147        -0.023964      0.036156     -0.000546
Au     15.66486      7.02790     11.08046        -0.040496      0.002260     -0.009062
Au     13.22448      5.74214     12.19873        -0.018689      0.020787      0.003420
Au     13.33161      9.69272     12.43205         0.022730     -0.018032      0.034579
Au     16.21555      9.48195     12.30924        -0.022356      0.000064     -0.020430
Au     10.34510      5.76928     12.58899        -0.007656     -0.015279     -0.018947
Au     13.57366      9.49936     15.25775         0.014514      0.026771      0.007435
Au     11.70758      7.82650     11.03088         0.017744      0.005425     -0.025041
Au     11.41006      4.99170     10.10499         0.011752     -0.049523      0.014030
Au     10.48005      9.92512     12.69933         0.020822      0.008913      0.003463
Au     11.94418      7.57989     14.04104        -0.003443     -0.032427      0.011643
Au     10.78441      9.85404     15.45918         0.006896      0.003651      0.013560
Au      7.34874     13.32397     14.38442         0.022364     -0.005858     -0.014461
Au      8.94200     15.36593     12.89355         0.022530     -0.017978     -0.002725
Au      4.91100     13.92514     13.21882        -0.002639     -0.039298      0.035079
Au      8.85518     15.64210     10.07155         0.019875     -0.005557      0.000631
Au      5.69126     11.25133     13.17310        -0.020029      0.014944      0.010677
Au      8.12333     10.52191     14.49035        -0.013187      0.006089     -0.016482
Au      4.38636     12.39224     10.96472         0.003592     -0.030332     -0.024927
Au      7.88850     10.78746     11.43174         0.018939      0.012313     -0.012177
Au      7.04154     13.78515     11.47268         0.005769      0.017224     -0.005082
Au     11.30237     14.48517     14.18292        -0.007309     -0.050979      0.001653
Au      9.59702     12.62489     12.79438        -0.000371     -0.002985     -0.002092
Au     12.49594     12.07887     14.96682         0.021770      0.019355      0.049380
Au     14.99971     11.75488     11.09799         0.012704     -0.007276      0.001182
Au     15.02183     11.51162     13.90181        -0.013353      0.013596     -0.000544
Au     11.30971     14.88253     11.39670        -0.015168      0.012526     -0.025870
Au      9.78004     12.50784     15.57358         0.025982      0.033306     -0.023720
Au      9.36598     12.87720      9.99731         0.007961     -0.010130     -0.017948
Au     11.90089     11.92525     11.30502         0.003736     -0.008616      0.009974
Au     13.56634     13.63645     12.77325         0.005827      0.015584      0.020256
