75
# total energy = -211.52747540 eVAu      8.29733      8.92966      4.83018         0.010983     -0.019789     -0.017415
Au      5.55200      8.26601      8.79229        -0.012713     -0.001550      0.004756
Au      8.75572      7.61129      9.88512         0.018256      0.027069      0.003120
Au      6.80559      5.74898      9.39281        -0.037397     -0.013781     -0.002708
Au      7.39397      7.21168      6.98180         0.006030      0.003793      0.007861
Au      6.55894      9.96737      6.68395        -0.015635     -0.004650      0.028403
Au     14.99982      8.56151      7.71053        -0.000074     -0.015676      0.000878
Au     11.03472      9.72560      5.25688         0.004436      0.002713      0.005449
Au     15.91203      6.71679      9.61587         0.010215      0.007905     -0.003510
Au     13.33524      8.12597      9.97854         0.020481      0.017104     -0.011424
Au     10.03021      7.03483      5.71889        -0.012781      0.021255     -0.006678
Au     11.66581      4.33912      9.06827        -0.004280      0.006326     -0.011403
Au     11.78240      5.08803      6.42781         0.012635     -0.009443      0.007016
Au     13.90035      5.85413      7.98518        -0.006192      0.011648     -0.003731
Au     11.21840      7.26175      8.37135         0.015054      0.002135     -0.019250
Au     12.86184      7.72601      6.03789         0.007064     -0.011907      0.010693
Au      9.32169      9.28119      7.56419        -0.014376     -0.011826     -0.005493
Au      9.20825      5.27369      7.86643         0.016549      0.000152     -0.007582
Au      5.11396     13.86240      9.23175        -0.001989     -0.000425      0.008192
Au      6.71627     12.75429      7.16102         0.017068     -0.005306      0.013032
Au      4.82971     11.07640      8.47749        -0.003193     -0.023877     -0.005227
Au      7.52254     10.42835      9.42753        -0.015784      0.012854      0.009432
Au      7.32371     15.27535      8.25297         0.006192      0.000339     -0.011470
Au      7.80930     13.24034     10.18171        -0.015846     -0.013871      0.008564
Au      8.78100     11.52071      5.64069         0.019204     -0.007868      0.000512
Au     11.50360     12.34146      6.27372        -0.008855     -0.007653     -0.006570
Au     12.40037     13.06257      8.89589        -0.000052      0.006044     -0.001766
Au     10.09940     14.82512      9.08111         0.020706     -0.004516     -0.005463
Au      9.69704     12.00387      8.42771         0.003328      0.019822     -0.002448
Au     14.54198     11.17956      8.78980        -0.010011     -0.018328      0.006505
Au     11.98074     10.06803      8.25210         0.019106     -0.005744     -0.014666
Au     13.64364     10.47647      6.12606        -0.014587      0.008866      0.017843
Au      9.21382     14.06919      6.55115         0.003622      0.009089     -0.007755
Au      7.26064      9.88074     14.67456        -0.012772     -0.003137      0.001831
Au      3.91867      9.47915     10.75055        -0.009738      0.010533     -0.004740
Au      4.91293      6.90842     11.19442         0.000008     -0.006648     -0.004209
Au      6.77737      8.92725     11.66488         0.015768      0.042276     -0.016532
Au      8.37792      7.23328     14.80030        -0.030321     -0.004905      0.027787
Au      5.69814      7.65101     13.89568         0.004327     -0.004218      0.005499
Au      7.43003      6.08119     12.25603         0.001187     -0.022974      0.006587
Au     10.22494      9.91119     10.39260        -0.047812     -0.012929      0.019607
Au      9.13416      4.58452     10.57612         0.010748     -0.004870     -0.007623
Au     14.20626      7.37641     14.76542         0.008902     -0.011365     -0.003434
Au     15.83462      9.34946     10.58024         0.000460     -0.015935      0.006716
Au     13.93524      4.94561     10.67630        -0.006631      0.021356     -0.003028
Au     12.88628      5.49108     13.26593         0.000520      0.011154      0.006348
Au     12.45110      8.42530     12.61247         0.022736      0.011556      0.006871
Au     15.12919      7.01449     12.21350        -0.003879      0.013301     -0.002378
Au      9.93394      5.33902     13.32643         0.014178     -0.002775      0.002552
Au     14.96151      9.70708     13.25906         0.001689     -0.015883     -0.004631
Au     12.79708      9.64679     15.23817        -0.010121      0.018777     -0.001342
Au     11.24736      6.47817     11.03712        -0.001044     -0.021498      0.005327
Au     11.57073      3.65512     11.71784         0.002100     -0.000126      0.000759
Au      9.54083      8.35189     12.58470         0.008172      0.021242     -0.024699
Au     11.26088      7.21098     14.92606         0.019473      0.002871     -0.000948
Au      9.88743      9.56522     15.55992         0.000708     -0.001108     -0.009652
Au      6.41513     12.57439     13.93437         0.001971     -0.017346      0.014731
Au      8.32916     11.18986     12.20206        -0.022296      0.008204     -0.005757
Au      3.10941     12.18064     10.32309        -0.022785      0.017975      0.002589
Au      5.89816     14.60231     11.92631        -0.006426     -0.004440     -0.005255
Au      8.45713     14.39717     13.14813         0.009720     -0.013019     -0.016186
Au      3.86944     12.89924     12.93591        -0.022815      0.017563      0.000946
Au      4.71685     10.23511     13.50036        -0.006510      0.009664      0.003395
Au      5.71214     11.68270     11.21870         0.019944     -0.015760     -0.002307
Au      8.08261     15.98992     10.85923         0.010441      0.006740      0.005499
Au     11.15275     13.75845     13.79746         0.017567     -0.011160     -0.005161
Au     13.04870     13.79814     11.58653        -0.002915     -0.001501      0.012723
Au     11.50053     11.95390     15.85354         0.019402     -0.010579      0.015005
Au     12.77695     10.81862     10.98933         0.023295     -0.001927      0.004544
Au     10.71616     15.48618     11.71570         0.006487      0.009582     -0.000763
Au     10.95740     10.82532     13.19260        -0.007090     -0.005188      0.016705
Au     15.20722     11.95156     11.50232        -0.020840      0.001716     -0.008003
Au      8.94386     12.21954     14.89038        -0.023181     -0.015810     -0.010407
Au     10.47216     12.73439     11.09052         0.000569      0.018056     -0.009792
Au     13.51677     12.06685     13.79549        -0.000359      0.001632     -0.006872
