75
# total energy = -211.38598420 eVAu      8.67979      8.96524      5.91904         0.023998      0.012271      0.006008
Au      6.35205      8.07073      9.72254        -0.013808      0.021629     -0.009530
Au      9.35615      8.27943      8.78929        -0.007819      0.007854     -0.006835
Au      7.53782      6.63856      7.52280        -0.023310      0.006247     -0.006802
Au      6.06872      8.94871      7.06003        -0.007473     -0.001521      0.014289
Au      9.49808      6.24908      5.62439         0.031423      0.009575     -0.037577
Au     16.73207      7.43071      8.37496         0.009764     -0.007388     -0.023980
Au     10.99604      8.76275      4.23827        -0.011515     -0.009047      0.005235
Au      9.99113      5.23731      8.24185         0.016791     -0.002321      0.002792
Au     16.47348     10.22674      8.84523         0.003973      0.008755      0.002611
Au     11.48653      7.82561      6.87525        -0.022865     -0.002404     -0.018987
Au     12.04686      5.01089      6.36079        -0.000161      0.003797     -0.037139
Au     15.40928      5.15495      9.61964        -0.006997     -0.023018     -0.012927
Au     11.64764      6.08512      3.86046         0.004212     -0.004434      0.020006
Au     14.15734      6.59362      7.49282         0.007577     -0.008862      0.009951
Au     11.96568      7.13197      9.57129         0.012836     -0.002049      0.000355
Au     13.61662      7.68914      4.92150        -0.001660     -0.007705     -0.006529
Au     12.74087      4.49254      8.96245        -0.014896      0.012401      0.025288
Au     15.40980      9.04745      6.49498         0.008804     -0.003297     -0.001720
Au     13.29077      9.39219      8.33863         0.001310      0.011571      0.022994
Au      4.35473     13.12594      8.80133         0.003130      0.002061     -0.017507
Au      6.83180     13.60271      7.52962        -0.000954      0.009238      0.010433
Au      7.67390     11.60495      5.62430         0.021261     -0.006989     -0.014894
Au      5.14754     11.51824      6.70948        -0.016069     -0.005014      0.006509
Au      7.83341     10.76646      8.31523        -0.029604      0.012051      0.020669
Au      4.86629     10.39196      9.25690         0.013594     -0.014312      0.009813
Au      8.67995     14.92308      9.14997         0.000465      0.017974     -0.000866
Au      9.51802     13.36183      6.84736        -0.000113      0.003489      0.003963
Au     10.36078     11.35110      4.96584        -0.016924     -0.013269      0.026676
Au     12.25977     12.88031      6.45055        -0.008598      0.012675     -0.039135
Au     14.75444     11.72852      7.18211         0.016028     -0.002752      0.022226
Au     11.38562     14.56881      8.57547        -0.018266      0.019300     -0.015696
Au     10.68487     10.52919      7.58375        -0.020737      0.003881     -0.037448
Au     12.63031     12.11957      9.09000         0.025514     -0.015500      0.007860
Au      9.74144     12.30999      9.72423         0.013152     -0.004320      0.011308
Au     13.01882     10.38064      5.41777         0.006612     -0.013831      0.000686
Au      7.54745      9.88153     14.04051         0.031812     -0.001849      0.014751
Au      8.05323      5.86019     10.17119        -0.010759     -0.019248      0.008744
Au      8.70924      5.33372     12.84716        -0.014510     -0.009947      0.012511
Au      8.34815      9.98825     10.99756        -0.000346      0.008763     -0.000608
Au      9.23173      7.60208     14.41415         0.014498      0.013206      0.006715
Au      7.14291      7.60106     12.39243        -0.009055     -0.022045      0.005484
Au     11.18728      9.85372     10.28857        -0.016520     -0.000975      0.015509
Au     17.31270      8.41671     10.93342         0.031400      0.005061      0.003365
Au     14.63928      7.78892     10.23415        -0.042413      0.003904     -0.012353
Au     14.01366      6.63903     14.05007        -0.005756     -0.013141     -0.002886
Au     13.42512      5.10060     11.66749         0.009373     -0.006073     -0.017940
Au     16.01419      6.21026     12.15739        -0.006954     -0.008238      0.025019
Au     10.71794      4.78536     10.93370         0.031541     -0.018751     -0.032778
Au     15.36559      8.89640     13.02003        -0.000961     -0.005335      0.013160
Au     11.95152      8.30851     15.00748        -0.000646     -0.002655      0.000088
Au     12.63227      8.21450     12.20196         0.008246     -0.014178      0.001663
Au     10.45294      9.95954     13.06539         0.001650     -0.004696     -0.014647
Au     11.38616      5.85206     13.50075         0.017497      0.015865      0.025449
Au      9.91248      7.57331     11.54781         0.020932      0.042505      0.007436
Au      9.83198      9.99296     15.77385        -0.007351      0.015242     -0.000974
Au      6.20908     12.25525     13.42608        -0.025790     -0.000821     -0.010850
Au      8.95055     12.37504     12.47885         0.008415     -0.013873      0.003299
Au      5.99857     15.02236      9.92443         0.012565      0.014401     -0.019050
Au      4.34273     12.27003     11.41233        -0.005349     -0.033449      0.028812
Au      5.64681      9.86434     11.88724        -0.026291      0.012003     -0.019608
Au      8.34840     12.35231     15.23148         0.008344     -0.006690      0.007764
Au      6.96981     12.46016     10.46149        -0.016156     -0.000850     -0.013853
Au      7.87449     15.00334     11.92563        -0.014525      0.010149     -0.016071
Au     12.45979     14.37054     13.38889         0.009395      0.018027     -0.003722
Au     13.28353     14.38857     10.64562         0.006798     -0.000475      0.045778
Au     14.59293     12.72809     12.59304         0.000252      0.002668     -0.014721
Au     13.93768     10.42368     10.99625         0.005995     -0.008112     -0.010065
Au     13.33208     10.59780     14.00540         0.001164     -0.009450     -0.000093
Au      9.69779     14.59845     14.01001         0.004840      0.013790      0.015982
Au     10.58562     14.97454     11.28979         0.040919     -0.010373      0.000383
Au     11.17479     12.24962     14.73200        -0.042020      0.015317      0.011041
Au     15.35438     12.69351      9.74486        -0.005667     -0.024358      0.004499
Au     11.76832     12.16604     11.85631        -0.017438     -0.022619     -0.000668
Au     16.60264     11.00412     11.62317         0.004195      0.040564     -0.008664
