75
# total energy = -211.52747887 eVAu      8.29743      8.92966      4.82984         0.009120     -0.017909     -0.016553
Au      5.55187      8.26582      8.79207        -0.012622     -0.002103      0.005422
Au      8.75534      7.61142      9.88511         0.017260      0.025737      0.002339
Au      6.80534      5.74849      9.39251        -0.035702     -0.011818     -0.002361
Au      7.39398      7.21180      6.98178         0.006371      0.003412      0.007679
Au      6.55900      9.96747      6.68403        -0.013584     -0.005269      0.026608
Au     14.99948      8.56167      7.71075        -0.000071     -0.015642      0.000524
Au     11.03462      9.72600      5.25660         0.004425      0.002052      0.004862
Au     15.91183      6.71696      9.61589         0.009903      0.007265     -0.003335
Au     13.33485      8.12576      9.97871         0.020635      0.016995     -0.011535
Au     10.03004      7.03511      5.71869        -0.011379      0.018928     -0.005743
Au     11.66554      4.33928      9.06822        -0.003403      0.005910     -0.010164
Au     11.78228      5.08811      6.42782         0.011982     -0.008894      0.006254
Au     13.90024      5.85413      7.98506        -0.005867      0.011803     -0.002958
Au     11.21811      7.26167      8.37131         0.015119      0.002687     -0.018470
Au     12.86139      7.72615      6.03792         0.007761     -0.012060      0.010612
Au      9.32184      9.28135      7.56384        -0.014216     -0.011469     -0.004369
Au      9.20829      5.27362      7.86632         0.015366      0.000424     -0.007294
Au      5.11397     13.86232      9.23184        -0.001832     -0.001132      0.008329
Au      6.71627     12.75446      7.16090         0.017013     -0.005710      0.013044
Au      4.83001     11.07622      8.47744        -0.004619     -0.022318     -0.003570
Au      7.52296     10.42783      9.42771        -0.014361      0.013466      0.008002
Au      7.32362     15.27538      8.25295         0.006480      0.000021     -0.010576
Au      7.80946     13.24008     10.18174        -0.015104     -0.012606      0.008176
Au      8.78116     11.52086      5.64051         0.018137     -0.008515      0.000849
Au     11.50377     12.34146      6.27374        -0.009135     -0.006720     -0.006592
Au     12.40040     13.06284      8.89581        -0.000440      0.006395     -0.001758
Au     10.09929     14.82526      9.08109         0.020274     -0.004751     -0.005065
Au      9.69736     12.00381      8.42778         0.002819      0.018823     -0.002032
Au     14.54167     11.17994      8.78978        -0.008125     -0.018285      0.005938
Au     11.98136     10.06795      8.25157         0.015126     -0.006464     -0.011315
Au     13.64362     10.47629      6.12550        -0.012680      0.009242      0.017265
Au      9.21375     14.06918      6.55120         0.003931      0.009151     -0.007562
Au      7.26067      9.88069     14.67491        -0.013031     -0.003435      0.001393
Au      3.91880      9.47906     10.75044        -0.009569      0.010324     -0.004476
Au      4.91307      6.90813     11.19429         0.000259     -0.005577     -0.004044
Au      6.77712      8.92741     11.66490         0.014453      0.039373     -0.015514
Au      8.37790      7.23305     14.80088        -0.029119     -0.004005      0.025963
Au      5.69836      7.65081     13.89586         0.004252     -0.003475      0.004562
Au      7.42992      6.08099     12.25612         0.000586     -0.022065      0.006497
Au     10.22573      9.91036     10.39260        -0.045675     -0.010207      0.017979
Au      9.13385      4.58453     10.57626         0.011147     -0.005158     -0.008874
Au     14.20615      7.37651     14.76546         0.008845     -0.010673     -0.003186
Au     15.83418      9.34952     10.58016         0.000628     -0.015517      0.007062
Au     13.93520      4.94553     10.67634        -0.007362      0.021937     -0.003046
Au     12.88607      5.49127     13.26602         0.000500      0.010263      0.005272
Au     12.45090      8.42527     12.61269         0.022307      0.011748      0.005884
Au     15.12917      7.01452     12.21362        -0.004262      0.013238     -0.002828
Au      9.93360      5.33900     13.32649         0.015221     -0.002541      0.003123
Au     14.96110      9.70725     13.25918         0.002252     -0.016378     -0.004522
Au     12.79701      9.64712     15.23826        -0.009376      0.016779     -0.001441
Au     11.24685      6.47823     11.03725        -0.000349     -0.021421      0.005424
Au     11.57055      3.65522     11.71786         0.002548      0.000316      0.000598
Au      9.54048      8.35207     12.58484         0.007909      0.020354     -0.022966
Au     11.26097      7.21096     14.92615         0.018256      0.003152     -0.000770
Au      9.88744      9.56533     15.55986         0.001187     -0.001345     -0.009744
Au      6.41542     12.57420     13.93435        -0.000004     -0.016486      0.013433
Au      8.32949     11.18926     12.20198        -0.020538      0.009677     -0.005603
Au      3.10942     12.18045     10.32323        -0.020525      0.017312      0.002199
Au      5.89812     14.60221     11.92627        -0.006172     -0.005057     -0.004956
Au      8.45718     14.39739     13.14812         0.009551     -0.013760     -0.015905
Au      3.86942     12.89903     12.93589        -0.020733      0.016903      0.000440
Au      4.71704     10.23505     13.50043        -0.006550      0.009638      0.003182
Au      5.71273     11.68244     11.21861         0.016155     -0.014033     -0.001652
Au      8.08253     15.98999     10.85927         0.010187      0.006026      0.004726
Au     11.15295     13.75863     13.79744         0.016443     -0.011718     -0.004611
Au     13.04884     13.79810     11.58644        -0.003242     -0.000741      0.012487
Au     11.50078     11.95406     15.85374         0.017225     -0.009422      0.014317
Au     12.77772     10.81871     10.98943         0.019205     -0.002958      0.004592
Au     10.71607     15.48614     11.71570         0.006693      0.009643     -0.001107
Au     10.95769     10.82561     13.19268        -0.007517     -0.005906      0.015787
Au     15.20752     11.95167     11.50283        -0.019452      0.002178     -0.008755
Au      8.94386     12.21961     14.89027        -0.020799     -0.015894     -0.010032
Au     10.47238     12.73427     11.09035        -0.000107      0.017163     -0.009365
Au     13.51675     12.06734     13.79554        -0.000008      0.001100     -0.006174
