75
# total energy = -211.43947060 eVAu     14.96936     17.02666      9.25350         0.003715      0.004382     -0.008274
Au     16.00476     15.11394     14.45088        -0.005593     -0.018572     -0.003716
Au     11.68681     19.21691     12.09525         0.000843      0.026345     -0.009397
Au     21.12349     12.35575     11.72083        -0.023128      0.012909     -0.001201
Au     17.39883     15.66163      9.64478         0.003702      0.003904      0.007028
Au     17.05444     18.32282     10.65231        -0.007506     -0.007768     -0.002195
Au     22.10261     12.95220     14.32751        -0.016589     -0.008002      0.023658
Au     13.43995     14.79737     10.19336        -0.003513      0.011487      0.017223
Au     15.13933     10.11209     14.32108        -0.000353     -0.008228     -0.001305
Au     19.30165     12.75487     13.89570        -0.009908      0.003137      0.017952
Au     12.28237     17.41855     10.04174        -0.011875      0.006574      0.005786
Au     19.09305     19.39155     12.31981         0.011749      0.010425     -0.011792
Au     15.87715     13.37533     10.48556        -0.012333      0.011544      0.003425
Au     16.91713      9.96095     12.17424        -0.013224      0.001485      0.005090
Au     10.95569     13.88990     13.70625         0.006760     -0.040544      0.020713
Au     18.33806     12.04103     10.96458         0.010778      0.002746      0.014490
Au      9.88459     16.46746     13.54540        -0.020660     -0.037750      0.013903
Au      9.65523     19.29370     13.92811         0.023623      0.001503     -0.000092
Au     13.93184     13.90809     12.87173         0.010745      0.001473      0.003333
Au     12.54104     11.45500     13.84957         0.012535     -0.002432     -0.009997
Au     19.65294     10.17306     12.72892        -0.018225      0.016154     -0.004439
Au     12.67553     16.51184     12.67228         0.004555      0.014586      0.009615
Au     16.49751     12.49229     13.27346         0.007957     -0.000662      0.003541
Au     16.44217     20.00232     12.92661         0.004103      0.005293     -0.009002
Au     19.81195     14.29552     10.21375        -0.003930      0.008565     -0.003804
Au     13.78178     20.36826     13.64380         0.001339      0.001476     -0.013218
Au     11.98244     12.63812     11.35188        -0.001095      0.000022     -0.012460
Au     15.41915     16.10433     11.82638         0.007111      0.009741     -0.018390
Au     10.73385     15.20307     11.18508        -0.001392     -0.006292     -0.004421
Au     17.49388     17.32541     13.35107         0.014869     -0.005659      0.006473
Au     21.10997     15.02478     12.70637         0.020062      0.004352     -0.001828
Au     14.42072     11.23158     11.71114         0.003025     -0.003237     -0.002793
Au     14.76759     17.71585     14.17521        -0.014895      0.001491     -0.013669
Au     20.49072     17.49179     13.88002         0.001220      0.006269     -0.003344
Au     17.95133     14.66922     12.28085         0.000321     -0.002905      0.011224
Au     19.55789     16.88429     11.20277         0.003106     -0.006172      0.005458
Au     14.33764     19.00580     11.22497         0.009156      0.012622      0.006149
Au     12.37139     19.45901     18.74518        -0.014664     -0.002939     -0.017089
Au     12.43465     14.79349     18.17166        -0.002566     -0.000166      0.001363
Au     17.80445     19.21943     17.77570        -0.003698     -0.003432     -0.005609
Au     13.90521     17.57502     16.88321         0.011574     -0.002534     -0.016823
Au      9.05424     17.51067     15.99413         0.017051      0.016948     -0.002701
Au     18.54189     19.41498     15.05015        -0.001114      0.002020     -0.002889
Au     19.05084     17.20083     19.30003         0.013210     -0.010897      0.015409
Au     19.56443     13.22968     19.22881        -0.008558     -0.007395     -0.006278
Au     21.62400     15.41832     15.51229        -0.010987     -0.016221     -0.001971
Au     20.64596     10.71213     15.31509         0.000811      0.021537      0.014345
Au     18.90640     11.21167     17.43948        -0.001792      0.016640     -0.016216
Au     18.86056     15.31508     14.95046         0.001608     -0.000333     -0.004997
Au     18.14109     15.14889     17.62849         0.015158      0.005057      0.004221
Au     21.19715     12.92692     16.98407        -0.022704      0.009991     -0.015200
Au     16.09922     10.70779     16.98890        -0.012547     -0.009851      0.004596
Au     20.95799     15.43243     18.19596         0.011463     -0.004262     -0.019277
Au     10.34471     15.12794     16.16270         0.002667     -0.014673      0.008439
Au     17.61549     14.94398     20.36656         0.008888      0.001162      0.003529
Au     15.11790     19.64807     18.37243        -0.000791     -0.008253     -0.007668
Au     10.55928     19.76602     16.63863        -0.011157     -0.000158      0.010870
Au     11.00334     17.17738     17.96379        -0.010694      0.001892      0.004474
Au     17.39888     13.07227     15.95071        -0.001170      0.005612     -0.001089
Au     17.91136     10.13159     14.94155        -0.001217     -0.019038      0.008474
Au     15.91023     20.12282     15.69570         0.003050     -0.004272     -0.008799
Au     15.28989     15.00747     17.17613         0.007663      0.002407     -0.005017
Au     16.19515     17.17050     19.20830         0.012267      0.002811      0.041298
Au     13.38913     17.01287     19.59574         0.007007      0.006412     -0.012791
Au     12.05185     18.22806     14.82601         0.011541      0.017782     -0.015246
Au     13.33811     10.49332     16.41316         0.005469     -0.023368      0.001150
Au     13.08940     15.43944     15.26147        -0.002413      0.003328     -0.008190
Au     14.05621     12.48497     18.24370        -0.000042     -0.013888      0.006262
Au     16.80279     12.69915     18.86987        -0.001264     -0.001021      0.003361
Au     11.81688     12.81808     16.25968        -0.013918     -0.002969      0.009136
Au     14.55837     12.84095     15.41882         0.003738      0.014218     -0.011861
Au     14.85492     14.64150     19.87842         0.004482      0.002623      0.003244
Au     16.79834     17.22275     16.17227         0.008389     -0.008170      0.004464
Au     19.92316     17.54265     16.65048         0.004294      0.001278      0.006217
Au     13.23569     20.49576     16.32058        -0.026086     -0.008143     -0.010869
