75
# total energy = -210.05384761 eVAu      7.91621      9.97646      4.21778         0.073944      0.025355     -0.166151
Au      5.26826      8.42859      8.19229        -0.001235     -0.084235      0.044983
Au      7.80117      9.27451      9.03273        -0.416223     -0.247033     -0.124292
Au      7.36027      6.56617      7.96338        -0.249213     -0.283700      0.073932
Au      8.77138      8.52194      6.47844        -0.149700     -0.125000     -0.465013
Au      6.59812     10.39422      6.62877        -0.155480      0.056086     -0.143742
Au     13.92526      6.70040      6.04826         0.074485     -0.021116     -0.010606
Au     12.66437      8.89896      4.86483        -0.070036     -0.017215      0.026609
Au     15.61704      7.08293      8.29364         0.121118     -0.103096     -0.064487
Au     12.77778      7.33030      8.58223         0.419508     -0.427760     -0.286285
Au     10.08195      8.24220      4.00106        -0.008473      0.116416     -0.148178
Au     12.44826      4.71004      7.49011        -0.017230     -0.041394      0.048390
Au     13.15994      9.86963      9.66676         0.365550      0.003618     -0.065852
Au     11.04910      6.80575      6.16355         0.105913     -0.147321     -0.169493
Au     14.13301      5.09536      9.71928         0.035599     -0.079248     -0.040744
Au     10.00526      7.48461      8.80433        -0.092242     -0.442000     -0.141709
Au     14.44520      9.34709      7.03489         0.412010     -0.077261     -0.224356
Au     15.98385      9.66459      9.42810         0.019127     -0.019870     -0.002226
Au      9.63904      4.92481      7.74101        -0.045591     -0.014423      0.012381
Au     11.42521      9.46572      7.36138         0.133724     -0.063181     -0.352596
Au      3.79088     13.75505      8.45776         0.168014     -0.032904      0.014225
Au      5.93131     13.17718      6.77097        -0.202328      0.153776      0.116284
Au      8.14775     12.53710      5.31450         0.030119     -0.099673     -0.047615
Au      4.39127     11.04087      8.31339        -0.137273      0.123823      0.072590
Au      6.26317     14.77154      9.24821        -0.224695      0.096026     -0.223903
Au      6.99435     11.94921      9.17554        -0.518200      0.289177     -0.201990
Au      8.46670     14.13967      7.64746        -0.064974      0.399802     -0.205763
Au     10.49832     10.86709      4.92682        -0.098595     -0.053483     -0.379579
Au     13.51152     13.96740      9.90190         0.098125      0.125234     -0.086566
Au     10.73153     13.35483      6.14606         0.078141      0.131690     -0.092047
Au     13.29963     14.06138      7.09020        -0.007820     -0.054740      0.079696
Au     11.04928     14.86029      8.59577         0.063827      0.145571     -0.083401
Au      9.22810     11.22871      7.59199        -0.111423      0.162771     -0.375174
Au     11.80302     12.04698      8.47721         0.266930      0.410215     -0.274995
Au     14.72948     11.88968      8.22454         0.082871      0.096949     -0.103455
Au     13.02856     11.50574      5.90353         0.099934      0.121293     -0.087587
Au      6.57256      8.69266     12.97917        -0.104704     -0.185068      0.084871
Au      8.53032      5.34952     10.29130        -0.053121     -0.149471      0.041921
Au      5.36674      9.89039     10.69662        -0.396936     -0.160469      0.053382
Au      7.44832      6.03622     12.79925         0.020402      0.068236     -0.014541
Au      9.05012      7.84144     14.28195        -0.089195     -0.158588      0.103332
Au      6.24612      7.18110     10.51888        -0.112709     -0.125412     -0.014665
Au      8.89469      8.04217     11.35771        -0.290378     -0.399904      0.234984
Au     10.35561     10.05542      9.92751         0.007521     -0.049453     -0.019969
Au     14.67095      7.52329     13.68625         0.052168     -0.059000      0.106910
Au     14.66779      7.58468     10.88775         0.367059     -0.185862      0.074093
Au     13.07775      5.66520     12.28816         0.021568     -0.017086      0.008983
Au     13.29251      9.71383     12.45864         0.532498     -0.059348      0.437955
Au     16.14738      9.54044     12.25036         0.107785      0.053234      0.040103
Au     10.25094      5.75642     12.60021        -0.091735     -0.169629      0.095077
Au     13.50668      9.52262     15.30263         0.073111     -0.112965      0.014377
Au     11.70407      7.85277     11.10606         0.144100     -0.333335      0.116348
Au     11.33599      5.08801     10.09277         0.070996     -0.420587     -0.008256
Au     10.52190      9.89439     12.75515         0.016772     -0.081819      0.390407
Au     11.85095      7.57617     14.07549         0.105695     -0.199649      0.276268
Au     10.68919      9.74500     15.57748        -0.032878     -0.018484      0.009798
Au      7.47191     13.31757     14.46565        -0.207838      0.073175      0.067307
Au      8.96281     15.33839     12.98944         0.072421      0.132560      0.046984
Au      5.08428     14.04417     13.19180         0.048940     -0.110350      0.034728
Au      8.78461     15.50050     10.15240         0.025102      0.124413      0.000017
Au      5.81201     11.33726     13.08522        -0.118777      0.260161      0.070208
Au      8.17079     10.53582     14.45057        -0.161762     -0.038703      0.314768
Au      4.65911     12.61442     10.81948        -0.272739      0.071444     -0.030250
Au      8.07688     10.74850     11.47527        -0.273676     -0.018430      0.192202
Au      7.28950     13.55409     11.57677        -0.279241      0.216308      0.224664
Au     11.34279     14.48110     14.23107         0.010120      0.132053     -0.010906
Au      9.72025     12.56779     12.82749        -0.049160      0.444381      0.493673
Au     12.20632     11.80532     14.28197         0.118784      0.103112      0.276427
Au     14.95191     11.82774     11.04347         0.335572      0.114594      0.116053
Au     14.98358     11.56463     13.86532         0.129898      0.038782     -0.007241
Au     11.26831     14.79175     11.42020         0.055258      0.402365      0.103014
Au      9.83347     12.46462     15.65905        -0.063151      0.046670      0.059768
Au      9.55009     12.75052     10.02522        -0.052146      0.429697     -0.019016
Au     11.98009     11.90162     11.30449         0.240656      0.277636      0.126741
Au     13.61579     13.75291     12.71138         0.015515      0.041645     -0.011807
