75
# total energy = -211.15859446 eVAu      8.73449      8.94719      5.94190        -0.050106      0.008093     -0.063373
Au      6.42612      8.24179      9.60485         0.057547     -0.097266      0.050928
Au      9.42171      8.26321      8.82395        -0.050665      0.010615      0.042646
Au      7.55113      6.72873      7.42470         0.042880      0.048515      0.083165
Au      6.06340      9.06397      6.90825         0.022663      0.007476      0.063639
Au      9.49688      6.24798      5.49228         0.021949      0.009347      0.063386
Au     16.75680      7.43085      8.38644        -0.029742      0.021200     -0.007660
Au     10.94996      8.68309      4.16237         0.032571      0.025619      0.044978
Au     10.01154      5.32998      8.14769        -0.066711     -0.025236      0.096485
Au     16.34125     10.18806      8.90936         0.091861      0.062544     -0.091204
Au     11.46922      7.84093      6.87166        -0.016759      0.011636      0.022091
Au     12.08705      5.09402      6.26479        -0.024390     -0.026042     -0.013290
Au     15.39362      5.12477      9.63873        -0.025294      0.020913      0.000860
Au     11.61065      6.02917      3.70629         0.035744      0.015032      0.051380
Au     14.14859      6.62289      7.55309         0.071198     -0.058907     -0.059824
Au     12.02477      7.13422      9.59512        -0.090264      0.017391      0.043522
Au     13.55988      7.57650      4.93388         0.007534      0.013230     -0.032500
Au     12.69733      4.51118      8.90221         0.035744     -0.038153      0.041210
Au     15.36516      9.01533      6.47060         0.056665     -0.000101      0.036169
Au     13.34169      9.39758      8.38252        -0.017352      0.063067     -0.020779
Au      4.07130     13.16630      8.61606        -0.034853     -0.001636     -0.057892
Au      6.68644     13.39451      7.62932         0.028974      0.098728     -0.121059
Au      7.49986     11.47758      5.59397         0.040308      0.017886      0.047289
Au      4.88384     11.53848      6.51159         0.056315      0.006825      0.050979
Au      7.92839     10.72438      8.31270         0.041883     -0.012328      0.046739
Au      5.00659     10.58813      9.14935        -0.108913     -0.144319      0.008500
Au      8.53302     14.77071      9.23448         0.094939      0.023401     -0.005664
Au      9.36455     13.18829      6.91865         0.133693      0.012427     -0.021546
Au     10.24322     11.25355      4.97042         0.029724     -0.001987      0.152532
Au     12.16165     12.83903      6.41820        -0.048572     -0.100055      0.091056
Au     14.73038     11.73026      7.15508        -0.066052     -0.029647      0.101152
Au     11.26986     14.54594      8.57365        -0.020694     -0.079004      0.044301
Au     10.76021     10.51042      7.62557        -0.049302      0.073567     -0.067010
Au     12.68370     12.16722      9.09543         0.052124     -0.019906     -0.063181
Au      9.86498     12.26980      9.79658        -0.023788      0.013015     -0.060273
Au     12.93118     10.27122      5.45888        -0.001044      0.132792      0.012541
Au      7.60640      9.98874     13.97394        -0.031156     -0.042062     -0.009445
Au      8.03475      5.92221     10.10493         0.071930      0.102573      0.010492
Au      8.65770      5.36834     12.81559         0.084793      0.124453     -0.053050
Au      8.47310      9.97523     11.05243         0.007134     -0.069954     -0.040228
Au      9.22146      7.63086     14.42940         0.007127      0.003326     -0.080824
Au      7.12777      7.68041     12.32904         0.096216      0.017783     -0.034867
Au     11.29425      9.84495     10.34555        -0.065217     -0.112926     -0.025741
Au     17.34299      8.43649     10.96792         0.022117     -0.014547     -0.023713
Au     14.69422      7.78185     10.26966        -0.020433      0.004655     -0.011051
Au     14.01185      6.60405     14.10239        -0.000944     -0.031331      0.031368
Au     13.37834      5.19671     11.62899        -0.020249     -0.118183      0.013444
Au     16.00454      6.17509     12.19389         0.021741     -0.021866     -0.029421
Au     10.67854      4.78693     10.88868        -0.015428      0.096621      0.030380
Au     15.41962      8.86032     13.05920        -0.042906      0.075529      0.032133
Au     11.96778      8.26622     15.10103        -0.020470      0.045875     -0.077128
Au     12.70229      8.20295     12.26097        -0.041397      0.009392     -0.022993
Au     10.57744      9.93310     13.12449        -0.025204      0.009089      0.048910
Au     11.36572      5.85690     13.53466        -0.067371     -0.004339     -0.085093
Au      9.97021      7.56743     11.59079        -0.029570     -0.033465     -0.041478
Au      9.84389     10.00477     15.80696         0.017321     -0.035477     -0.043702
Au      6.30002     12.44481     13.36276         0.004107     -0.057654      0.022471
Au      9.09206     12.34901     12.56358        -0.007386      0.000459     -0.014437
Au      5.83314     14.78981     10.01971         0.003068      0.147696      0.026633
Au      4.45889     12.47579     11.27888        -0.080493     -0.019786      0.114202
Au      5.71893     10.03192     11.80164         0.004890     -0.064443      0.037851
Au      8.38518     12.37840     15.29251        -0.076423      0.014262     -0.024881
Au      7.12166     12.38311     10.48108         0.081831     -0.052998     -0.018343
Au      7.73870     14.85437     12.04620         0.070658      0.032053     -0.024799
Au     12.47095     14.42449     13.40923        -0.009838     -0.093204     -0.052669
Au     13.25515     14.42919     10.66732        -0.043429     -0.075557     -0.009360
Au     14.66451     12.81631     12.63057        -0.087661     -0.055472     -0.037146
Au     14.00369     10.43192     11.03902         0.045514      0.019281      0.003507
Au     13.38182     10.58238     14.01626        -0.020552      0.021008     -0.002965
Au      9.71969     14.63045     14.07892        -0.047287      0.028835     -0.027776
Au     10.49309     14.86884     11.33612         0.011056      0.035976     -0.057410
Au     11.21535     12.27042     14.77529         0.060358     -0.029070     -0.051863
Au     15.37847     12.72045      9.78309        -0.090176     -0.043344     -0.067534
Au     11.89305     12.13829     11.90535         0.011759      0.115955      0.102605
Au     16.63664     11.04177     11.68939        -0.007845     -0.007876     -0.016374
