75
# total energy = -210.92289034 eVAu     14.98325     16.96654      9.18108        -0.015288      0.023331      0.007376
Au     16.05860     15.05548     14.38647        -0.002586      0.000353     -0.020019
Au     11.55602     18.92112     12.09100        -0.009557      0.068465     -0.023735
Au     21.13966     12.39297     11.72929        -0.084092      0.028991      0.013466
Au     17.42152     15.65550      9.53902         0.035385      0.037566      0.064530
Au     17.01318     18.32885     10.61524         0.008812     -0.067750      0.000668
Au     22.06125     13.03525     14.35263        -0.066037      0.028898     -0.033202
Au     13.50076     14.70954     10.08863        -0.099251      0.068933      0.010436
Au     15.05439     10.04503     14.30401         0.061077      0.018997     -0.015154
Au     19.29127     12.73046     13.85555        -0.083032      0.077506      0.030957
Au     12.28754     17.31400      9.93596         0.054170     -0.034428      0.031457
Au     18.99263     19.48863     12.26248         0.005386     -0.028628     -0.016948
Au     15.91755     13.34935     10.47748        -0.010240     -0.027236     -0.056838
Au     16.90925      9.90482     12.17904         0.029942      0.029186      0.051555
Au     11.11151     13.97306     13.61721        -0.112196     -0.029573      0.034808
Au     18.33960     12.03988     11.00084         0.104399     -0.045785      0.027708
Au      9.98862     16.64148     13.39090        -0.040007     -0.019374      0.085251
Au      9.94853     19.64837     14.13021         0.034048     -0.072848      0.063763
Au     14.02294     13.80183     12.79145         0.028963      0.060963      0.004070
Au     12.53812     11.44627     13.80019         0.060721      0.013768     -0.024415
Au     19.66542     10.14434     12.76797        -0.080720      0.076850     -0.002155
Au     12.75410     16.37818     12.62053        -0.030541      0.054444      0.024927
Au     16.50347     12.42937     13.26056         0.082726      0.037959      0.024781
Au     16.31983     19.92621     13.01522        -0.020365     -0.003924     -0.013627
Au     19.79896     14.32244     10.17074         0.031578      0.001445      0.076501
Au     13.60067     20.17615     13.73811         0.009354      0.010994      0.042570
Au     12.05860     12.57390     11.25235        -0.019144      0.055239      0.008977
Au     15.48085     16.04455     11.75182        -0.021847     -0.036462      0.057390
Au     10.75699     15.13991     11.08391         0.052893     -0.011258      0.019225
Au     17.53639     17.33280     13.31544        -0.049746     -0.133360      0.023276
Au     20.99789     15.08740     12.71558         0.153038      0.043165     -0.076221
Au     14.43936     11.13046     11.62352         0.010728     -0.010410      0.080004
Au     14.78835     17.65137     14.16506        -0.097894     -0.043508      0.029791
Au     20.46035     17.63588     13.83609         0.021760     -0.068486     -0.000066
Au     17.96166     14.67462     12.23282         0.019120     -0.056069      0.070232
Au     19.52793     16.96269     11.14213         0.013344     -0.062805      0.022054
Au     14.27886     18.77571     11.34775        -0.031261      0.108360     -0.082857
Au     12.37301     19.59409     19.02048        -0.037255     -0.015712     -0.106085
Au     12.58683     14.93064     18.12655        -0.115805      0.001860      0.058626
Au     17.79494     19.22873     17.80331        -0.055523     -0.044581     -0.011669
Au     14.10887     17.47881     16.94458        -0.139767      0.052409     -0.076518
Au      9.13706     17.61596     15.91733         0.169833      0.078007     -0.067644
Au     18.49307     19.46565     15.03420        -0.008962     -0.027777      0.008103
Au     19.08701     17.26601     19.41021         0.009801     -0.009398     -0.055724
Au     19.49120     13.22265     19.30392        -0.034638      0.008201     -0.023524
Au     21.63366     15.62584     15.48733        -0.057017     -0.054157     -0.015680
Au     20.57116     10.73324     15.39467        -0.064394      0.027243     -0.025632
Au     18.72922     11.12248     17.55371        -0.001853      0.052070     -0.064206
Au     18.88203     15.34780     14.92334         0.000154     -0.104852      0.017413
Au     18.22153     15.18135     17.69391        -0.007425     -0.028713     -0.083387
Au     20.35848     13.29626     16.60693         0.154207     -0.064704      0.074990
Au     15.96714     10.66674     17.03309         0.065685      0.003016     -0.026194
Au     20.98708     15.52777     18.25216        -0.031544      0.020145     -0.034740
Au     10.54384     15.30122     16.02163        -0.069055      0.015551      0.099465
Au     17.61602     14.97720     20.45953        -0.008034     -0.036632     -0.042922
Au     15.10981     19.60995     18.57897        -0.025388     -0.006470     -0.088015
Au     10.54017     19.88887     16.86385         0.032365     -0.119123      0.016514
Au     11.19977     17.31695     17.88707        -0.090020     -0.008363      0.048967
Au     17.39821     13.05811     15.97852         0.098423      0.032073     -0.034451
Au     17.82247     10.18651     14.95564         0.017223     -0.179666      0.022986
Au     15.83539     19.94800     15.80477         0.021214      0.104634     -0.009580
Au     15.41462     14.89612     17.17908         0.073236      0.006349     -0.046248
Au     16.26375     17.06711     19.05570        -0.015885      0.071166      0.153187
Au     13.49582     17.14492     19.70051        -0.068321     -0.033709     -0.096114
Au     12.02754     17.99992     15.00711         0.043446      0.037827      0.022819
Au     13.21926     10.48015     16.39266         0.046265     -0.010703     -0.023322
Au     13.27806     15.34393     15.23230        -0.048932      0.129693     -0.026876
Au     13.98996     12.48394     18.24333         0.034659     -0.014089     -0.018169
Au     16.72695     12.73640     18.90078         0.000586     -0.089127      0.075266
Au     11.86253     12.90859     16.23214        -0.006307      0.004299     -0.022767
Au     14.59674     12.75273     15.41505         0.079886      0.057411     -0.070181
Au     14.83465     14.66190     19.90519         0.022896      0.044898     -0.051904
Au     16.89038     17.17882     16.13644         0.017407     -0.091550     -0.012221
Au     19.87310     17.60061     16.66539         0.091844      0.057379      0.004386
Au     13.21782     20.33681     16.45735        -0.036644      0.041585     -0.009484
