75
# total energy = -211.45357489 eVAu      8.28683      8.95214      4.77609        -0.008383      0.010472      0.033794
Au      5.53124      8.23667      8.77365         0.028903     -0.007806      0.054774
Au      8.67856      7.63446      9.88524         0.042130      0.003807     -0.045862
Au      6.78355      5.72445      9.36665         0.022771     -0.003913      0.005758
Au      7.40518      7.22658      6.97087        -0.007261     -0.041160      0.006370
Au      6.59734      9.94934      6.71530        -0.000193      0.003973     -0.071652
Au     14.94712      8.58770      7.72206        -0.000440      0.033593     -0.029592
Au     11.03841      9.73849      5.19108         0.019775      0.040189      0.033497
Au     15.88671      6.75253      9.61288        -0.026898     -0.027003      0.018420
Au     13.29017      8.10179      9.99727        -0.011364      0.001609      0.005489
Au     10.01348      7.06464      5.69138         0.009087     -0.041064      0.006168
Au     11.63265      4.36491      9.06563        -0.001745     -0.013113     -0.015991
Au     11.75188      5.10632      6.41803         0.011551     -0.003429      0.015065
Au     13.86114      5.88497      7.98066         0.022029      0.005597     -0.000451
Au     11.16457      7.26453      8.38086         0.056308     -0.006395     -0.017379
Au     12.82948      7.74228      6.02559         0.027391      0.026135      0.025194
Au      9.35288      9.29188      7.52376        -0.068909     -0.017795      0.019942
Au      9.19188      5.26528      7.82797        -0.033914     -0.001813      0.033053
Au      5.13850     13.82686      9.23603        -0.010641      0.026917      0.014502
Au      6.76522     12.72034      7.20056         0.002295      0.014062     -0.008165
Au      4.86551     11.03449      8.50438        -0.043290      0.018573     -0.001017
Au      7.59225     10.40869      9.44993        -0.045792     -0.022955      0.005006
Au      7.33869     15.25855      8.25261        -0.002229      0.024003      0.012441
Au      7.84415     13.21361     10.17966        -0.053067      0.018931      0.009433
Au      8.80583     11.52155      5.63668         0.006263     -0.009333     -0.013431
Au     11.51686     12.35300      6.25866        -0.010906     -0.007528     -0.012761
Au     12.41845     13.11593      8.87590        -0.015971     -0.021748      0.010618
Au     10.10720     14.82336      9.07893         0.006730     -0.009556      0.001378
Au      9.74908     11.97751      8.43564        -0.012954      0.047234     -0.007315
Au     14.52951     11.22587      8.78054         0.034183     -0.025088     -0.004239
Au     12.00764     10.05895      8.22393         0.094949      0.010526     -0.074844
Au     13.64496     10.50739      6.09211        -0.019723     -0.057280      0.056171
Au      9.23235     14.07027      6.55233         0.013415     -0.024467     -0.000864
Au      7.25727      9.86647     14.71180        -0.000977     -0.036456     -0.047632
Au      3.90967      9.44817     10.74723         0.004304      0.020412      0.012824
Au      4.92643      6.88334     11.19246        -0.030838     -0.018460     -0.009345
Au      6.74481      8.92515     11.67471         0.015773      0.070208     -0.026137
Au      8.37532      7.22707     14.84198         0.016727     -0.010213     -0.013428
Au      5.71493      7.62844     13.90253        -0.020987     -0.009860      0.031904
Au      7.41896      6.03204     12.27274        -0.000133      0.040405     -0.010731
Au     10.34763      9.78819     10.39042        -0.160741     -0.012363      0.054847
Au      9.10385      4.57110     10.55246        -0.045956     -0.005128     -0.020357
Au     14.18385      7.40060     14.77970         0.001026     -0.010041     -0.013838
Au     15.77972      9.37344     10.58543         0.010142      0.039841      0.005861
Au     13.86489      5.01961     10.67649         0.045591     -0.020377     -0.008879
Au     12.85659      5.51972     13.27219         0.007341     -0.002728      0.020065
Au     12.40080      8.43153     12.63052         0.055868     -0.008491     -0.014045
Au     15.09456      7.04909     12.22176         0.019756     -0.000076     -0.017991
Au      9.92189      5.34299     13.36594        -0.029870      0.010469      0.039160
Au     14.93829      9.73167     13.27655         0.007105      0.007239     -0.044259
Au     12.79253      9.68698     15.25084         0.011126     -0.041958      0.011211
Au     11.13797      6.50173     11.06273         0.093202      0.019158     -0.029612
Au     11.52725      3.69139     11.72122         0.036975     -0.033916     -0.003379
Au      9.47154      8.38342     12.61294         0.060342      0.019427      0.009268
Au     11.26727      7.22403     14.96610        -0.043357     -0.013829     -0.005596
Au      9.90116      9.58173     15.55584        -0.005061     -0.034613      0.015464
Au      6.43901     12.52005     13.91703        -0.042738      0.023541      0.011033
Au      8.37967     11.15204     12.16134        -0.035444     -0.015307      0.029677
Au      3.12588     12.16379     10.32247        -0.019177     -0.000517      0.014275
Au      5.92129     14.56662     11.92785        -0.020410      0.015302     -0.016377
Au      8.48380     14.34173     13.11005         0.000736      0.017274     -0.001157
Au      3.88669     12.88195     12.93629        -0.021594     -0.003442     -0.000551
Au      4.71609     10.21055     13.52237        -0.007278      0.011716     -0.022334
Au      5.72614     11.64973     11.22354         0.057607      0.006767     -0.017380
Au      8.09677     15.97451     10.86002        -0.009709      0.017077     -0.020331
Au     11.17481     13.75727     13.78792         0.016529     -0.003813      0.014240
Au     13.06484     13.81382     11.58483         0.002840     -0.000478      0.018593
Au     11.51712     11.99992     15.88762        -0.028386     -0.003528     -0.025968
Au     12.81523     10.82063     10.99949         0.116462      0.030346      0.002363
Au     10.73074     15.48303     11.70455         0.014742     -0.018449      0.004032
Au     11.00400     10.84963     13.20097        -0.069494     -0.016769      0.027632
Au     15.22169     11.99380     11.51166        -0.040601     -0.071644     -0.003310
Au      8.96453     12.18359     14.85744         0.035516      0.035937      0.051976
Au     10.51535     12.70029     11.07158        -0.015558      0.045774     -0.011940
Au     13.55102     12.10917     13.83458        -0.005504      0.017384     -0.053359
