75
# total energy = -211.44236055 eVAu     14.96848     17.03331      9.24991        -0.006591      0.017455      0.010152
Au     15.99564     15.11494     14.44897         0.015419      0.025880     -0.007367
Au     11.69365     19.24096     12.09375         0.005452      0.020611     -0.016187
Au     21.11503     12.36002     11.72296        -0.010369      0.014539      0.001511
Au     17.39286     15.66005      9.65046         0.013055      0.010021     -0.013288
Au     17.05854     18.32371     10.65353        -0.017402      0.000714     -0.006860
Au     22.09508     12.95034     14.33053        -0.004856      0.010910     -0.001932
Au     13.43706     14.80328     10.19384        -0.007524      0.026062      0.007483
Au     15.13205     10.11334     14.31925         0.006676     -0.007803      0.009153
Au     19.29350     12.75727     13.90106         0.000553      0.008732      0.016502
Au     12.28407     17.42786     10.05252        -0.001636      0.005587     -0.000656
Au     19.10267     19.39580     12.31741        -0.000701      0.002987     -0.008508
Au     15.87147     13.37829     10.48041        -0.000864      0.000283      0.014843
Au     16.91117      9.96709     12.17970        -0.001408     -0.006587     -0.004566
Au     10.95678     13.86355     13.71471        -0.006518     -0.016492     -0.019545
Au     18.33276     12.04627     10.96977        -0.003911      0.002893      0.005964
Au      9.86415     16.42180     13.56748         0.005995     -0.012977     -0.012060
Au      9.64297     19.25051     13.90740         0.027067     -0.011582      0.009142
Au     13.93084     13.90911     12.86692        -0.016424      0.018977      0.000307
Au     12.54177     11.45253     13.84834         0.010898     -0.010812     -0.012549
Au     19.64850     10.17830     12.73197        -0.025015      0.002708      0.000503
Au     12.67208     16.51883     12.67742        -0.008860     -0.002991     -0.003305
Au     16.49436     12.49679     13.27907         0.003084     -0.018402     -0.004855
Au     16.45284     20.01046     12.92635         0.005767      0.001007     -0.020425
Au     19.80484     14.29818     10.21627        -0.001733      0.008123      0.001140
Au     13.79523     20.38684     13.64062         0.008174     -0.010022     -0.016862
Au     11.98003     12.63958     11.34360         0.006286     -0.005831      0.013535
Au     15.41947     16.10630     11.81953        -0.007188      0.021993      0.012833
Au     10.73922     15.20243     11.18991        -0.013346     -0.003460      0.030742
Au     17.49555     17.33064     13.34978         0.000310     -0.012955      0.004337
Au     21.11171     15.02846     12.70659         0.013897     -0.002744     -0.002158
Au     14.41833     11.23926     11.70983         0.007397     -0.018992     -0.008948
Au     14.77336     17.71910     14.17038        -0.007442      0.012229     -0.027919
Au     20.48965     17.49367     13.88121         0.008526     -0.000253     -0.004667
Au     17.94634     14.67340     12.29042         0.019290     -0.004609     -0.018408
Au     19.55489     16.88448     11.20255         0.012442      0.002191      0.013046
Au     14.34321     19.01741     11.22850         0.017912     -0.003364     -0.016610
Au     12.36592     19.45846     18.72665         0.015385     -0.015602     -0.006544
Au     12.44399     14.78914     18.16770        -0.013819      0.014947      0.010568
Au     17.81577     19.21556     17.77654        -0.007058     -0.018442      0.003691
Au     13.90595     17.57643     16.87017        -0.003207     -0.005715     -0.033056
Au      9.04387     17.50133     16.00444         0.024056      0.009572     -0.015063
Au     18.54976     19.41048     15.04957         0.011953      0.010115      0.003327
Au     19.06727     17.19701     19.31057        -0.006211      0.003934      0.011535
Au     19.56796     13.23010     19.23982        -0.012461     -0.034193     -0.008801
Au     21.61855     15.41986     15.51197        -0.003510     -0.012672      0.007106
Au     20.64332     10.71804     15.31677        -0.013670     -0.009790      0.014058
Au     18.89636     11.21576     17.43892         0.008932      0.012000      0.005027
Au     18.85441     15.31993     14.95461         0.001596      0.000095     -0.009611
Au     18.15017     15.14803     17.63461        -0.008514      0.020111      0.015848
Au     21.16911     12.93865     16.97629         0.007954     -0.012173     -0.005331
Au     16.09245     10.70792     16.98971        -0.000352     -0.002948      0.007293
Au     20.96387     15.42991     18.20472         0.035553      0.009257     -0.025036
Au     10.34257     15.11682     16.16762        -0.015899      0.004903      0.016446
Au     17.62715     14.94076     20.37738        -0.008303      0.006274      0.001946
Au     15.12250     19.63085     18.36344        -0.010244      0.001124      0.004729
Au     10.55895     19.75649     16.61767        -0.014586      0.007427      0.012809
Au     11.00714     17.17036     17.95774        -0.002863     -0.001615      0.005744
Au     17.39361     13.07834     15.95647        -0.015872      0.003609     -0.006566
Au     17.90615     10.13018     14.94689         0.002054     -0.016484     -0.003452
Au     15.92113     20.12053     15.69332        -0.028040      0.004657      0.005921
Au     15.29364     15.00736     17.17460         0.010086      0.012429      0.010358
Au     16.21230     17.16108     19.20940         0.014735      0.011177      0.040557
Au     13.40650     17.01533     19.57781        -0.005706      0.018085     -0.002054
Au     12.06234     18.24361     14.80717        -0.001671      0.022575      0.002286
Au     13.33680     10.48938     16.41351        -0.001517     -0.010777     -0.003528
Au     13.08325     15.44239     15.26010         0.000985     -0.008154     -0.014398
Au     14.06056     12.48135     18.24025         0.002422     -0.014707      0.019615
Au     16.80597     12.70164     18.87465        -0.008435     -0.011170     -0.000615
Au     11.81085     12.81101     16.26679         0.014065     -0.034415      0.009849
Au     14.55190     12.84717     15.41679        -0.020405     -0.015322      0.001870
Au     14.86190     14.63771     19.87777         0.014255      0.009807     -0.001406
Au     16.80266     17.22250     16.17234         0.003716     -0.017771      0.004789
Au     19.92979     17.53813     16.65719         0.002361      0.014782     -0.003042
Au     13.23847     20.50346     16.31211        -0.014176     -0.018958     -0.000387
