75
# total energy = -211.41498653 eVAu     14.96930     17.00794      9.24525         0.005593      0.015234      0.012344
Au     16.02344     15.09485     14.45082         0.001875      0.035098     -0.013804
Au     11.66255     19.17959     12.08449         0.007871      0.017958      0.012011
Au     21.12670     12.36241     11.71920        -0.004123     -0.006222      0.006725
Au     17.41545     15.66414      9.64227        -0.023698     -0.006686     -0.006437
Au     17.04730     18.31223     10.65421        -0.015034      0.003481     -0.009420
Au     22.11314     12.93831     14.33237        -0.007276      0.027503     -0.005273
Au     13.44303     14.79382     10.21204         0.005479      0.004552     -0.028839
Au     15.15521     10.09931     14.32261        -0.012133     -0.001553     -0.001609
Au     19.31103     12.74974     13.89725         0.015876     -0.004906      0.005763
Au     12.26859     17.40270     10.02086         0.010834      0.013069      0.009529
Au     19.07741     19.38814     12.31393         0.012804      0.014377      0.000629
Au     15.88447     13.38016     10.49982        -0.001466     -0.011315     -0.020443
Au     16.91837      9.94677     12.16462         0.015894      0.013572      0.001130
Au     10.96534     13.92142     13.70818         0.017368     -0.009062     -0.011834
Au     18.35334     12.03568     10.96163        -0.024012      0.003542      0.001131
Au      9.91278     16.53957     13.50509        -0.015779     -0.042334      0.026823
Au      9.72025     19.43619     13.98354         0.000489     -0.065416     -0.009115
Au     13.95203     13.89806     12.87792        -0.004189      0.020675      0.000103
Au     12.55748     11.46062     13.85095        -0.016310      0.005036      0.005732
Au     19.65274     10.17443     12.72717        -0.001471      0.001486      0.000319
Au     12.68372     16.50456     12.66175         0.004447     -0.000359      0.007719
Au     16.51421     12.47590     13.26579        -0.015183     -0.005433      0.009374
Au     16.41613     19.98116     12.92505         0.003084      0.003327     -0.008854
Au     19.82650     14.29866     10.20152        -0.007536     -0.007425      0.020571
Au     13.74357     20.33212     13.64401         0.016538      0.002215     -0.013800
Au     11.98842     12.63981     11.35922        -0.009620     -0.001733      0.005740
Au     15.43472     16.10371     11.82417        -0.014963     -0.002719      0.024027
Au     10.72572     15.19674     11.17041         0.001474      0.007888      0.028114
Au     17.50422     17.31402     13.35941        -0.023510     -0.011322     -0.012000
Au     21.13421     15.02277     12.70191         0.000713      0.013550     -0.006697
Au     14.42477     11.21888     11.71292         0.007008      0.019569     -0.011114
Au     14.75603     17.69338     14.18392         0.002999      0.007635     -0.008207
Au     20.49251     17.49478     13.87625         0.005513      0.002395     -0.002606
Au     17.96278     14.65743     12.27336        -0.000321      0.013269      0.008010
Au     19.56622     16.87817     11.20821         0.004069      0.006781     -0.003029
Au     14.32113     18.98386     11.22130         0.008834     -0.006366      0.001470
Au     12.36589     19.46459     18.78275        -0.007671      0.001650     -0.029485
Au     12.41499     14.79872     18.17903         0.015918      0.003574     -0.006183
Au     17.77400     19.22548     17.76911         0.005639     -0.010568      0.003682
Au     13.92410     17.56973     16.91349        -0.011264     -0.007771     -0.031311
Au      9.10022     17.54900     15.95603        -0.005815     -0.017123      0.004036
Au     18.51450     19.42349     15.04157         0.009021     -0.002537      0.016944
Au     19.02417     17.19862     19.28073         0.005380      0.018067      0.016091
Au     19.55013     13.23704     19.19875        -0.001822     -0.028332      0.030520
Au     21.63200     15.41150     15.49638         0.005902      0.006074      0.020026
Au     20.65983     10.71081     15.31253        -0.020594     -0.004727      0.014779
Au     18.91562     11.20856     17.42246         0.001986     -0.002054      0.033363
Au     18.87661     15.30761     14.93769        -0.011676      0.008946      0.007176
Au     18.13759     15.14920     17.60673        -0.005656      0.000350      0.010493
Au     21.23696     12.91517     16.99814        -0.050572      0.005284     -0.048819
Au     16.10556     10.69581     16.98856        -0.007978     -0.002157      0.002064
Au     20.94331     15.43434     18.16703         0.030068      0.024530      0.005159
Au     10.35720     15.15104     16.15681        -0.004652      0.005488      0.007192
Au     17.59602     14.94916     20.33854        -0.007360      0.005564      0.018565
Au     15.09907     19.67980     18.37923         0.023208     -0.024366     -0.002396
Au     10.53978     19.79713     16.71156         0.024249     -0.029622     -0.043859
Au     10.97963     17.18885     17.99209         0.002613     -0.001774     -0.014982
Au     17.41005     13.06070     15.94306        -0.007011      0.003543      0.010340
Au     17.92296     10.10854     14.94232        -0.003682     -0.006932     -0.003552
Au     15.87830     20.11752     15.68636         0.019222     -0.013143      0.009675
Au     15.28850     15.00223     17.17666         0.012396      0.005175      0.010558
Au     16.16245     17.20167     19.25568         0.018862     -0.010579     -0.020763
Au     13.35068     17.00930     19.62206         0.033114     -0.002468     -0.013503
Au     12.03529     18.19944     14.86587        -0.001877      0.016613     -0.012145
Au     13.34588     10.49185     16.40996        -0.009764      0.000193      0.000367
Au     13.09992     15.44276     15.26239        -0.001167      0.001627      0.003782
Au     14.04114     12.48809     18.24472         0.005189     -0.003623     -0.006855
Au     16.78872     12.69800     18.85742         0.006258      0.000513     -0.005617
Au     11.82599     12.82889     16.25256         0.000613     -0.009064     -0.000442
Au     14.57962     12.83210     15.42276        -0.028772     -0.006364     -0.010304
Au     14.83529     14.64820     19.87790         0.011539      0.002874     -0.004890
Au     16.79326     17.21540     16.17149         0.007185     -0.003453      0.006318
Au     19.90501     17.55380     16.63808         0.006767     -0.011000     -0.005990
Au     13.20993     20.47108     16.32507        -0.009937      0.018227      0.015780
