75
# total energy = -211.35979051 eVAu     14.96864     16.99952      9.23806        -0.008140     -0.007602      0.009434
Au     16.04769     15.08196     14.45346        -0.022296      0.029256     -0.022742
Au     11.63276     19.15033     12.07102         0.011012      0.000907     -0.008327
Au     21.11685     12.36581     11.73476         0.018800      0.031545     -0.012950
Au     17.40984     15.64598      9.64744        -0.004864      0.025044     -0.013882
Au     17.04089     18.30024     10.64031         0.012662      0.003604      0.013703
Au     22.12147     12.95969     14.31769        -0.014745     -0.034727      0.010148
Au     13.44660     14.78752     10.19166        -0.003452      0.016301      0.002354
Au     15.15694     10.07023     14.31251        -0.018169      0.032233      0.025014
Au     19.32814     12.74786     13.92718        -0.042049      0.027122     -0.037208
Au     12.25631     17.39460     10.00277         0.023399     -0.018058      0.005280
Au     19.05777     19.39997     12.30765         0.000871     -0.017720      0.010129
Au     15.88521     13.37328     10.47332         0.008146     -0.001318      0.014514
Au     16.92775      9.94221     12.16295         0.009110     -0.005251      0.009705
Au     11.02286     13.94590     13.72434        -0.053816     -0.016508     -0.056399
Au     18.34507     12.03979     10.96441        -0.001316     -0.011317     -0.005052
Au      9.92106     16.54991     13.48994        -0.000869      0.006836     -0.000871
Au      9.83107     19.59521     14.04814        -0.071268     -0.104401     -0.010803
Au     13.97228     13.90489     12.86908        -0.012477     -0.010470     -0.006648
Au     12.56666     11.46140     13.84539         0.015199     -0.012442     -0.002930
Au     19.65451     10.18496     12.73417        -0.022159     -0.027295      0.021770
Au     12.69082     16.50689     12.65802        -0.003010     -0.029370     -0.017404
Au     16.52956     12.45918     13.28218         0.000374      0.003708     -0.018890
Au     16.38120     19.95283     12.91219         0.040192      0.023511      0.018372
Au     19.82573     14.30281     10.22279         0.030641     -0.007086     -0.022156
Au     13.70353     20.28732     13.64646        -0.006889      0.065909      0.018909
Au     11.99643     12.65237     11.36441         0.000615     -0.017390     -0.019998
Au     15.43920     16.09184     11.82482        -0.008079      0.010090     -0.024102
Au     10.72206     15.20016     11.17682         0.016773     -0.011777     -0.015795
Au     17.50849     17.30204     13.34548         0.014707      0.000085      0.009422
Au     21.19534     15.05904     12.67584        -0.051082     -0.031629     -0.001293
Au     14.44865     11.24278     11.70255        -0.034575     -0.027769      0.013267
Au     14.75515     17.68187     14.18454         0.035346     -0.041795      0.012361
Au     20.50652     17.51091     13.85944        -0.025665      0.001356      0.010608
Au     17.96966     14.64681     12.28393        -0.001603      0.006911      0.015920
Au     19.57386     16.88688     11.20366        -0.014702      0.007009      0.007339
Au     14.30320     18.94385     11.22727         0.005746      0.010208     -0.020804
Au     12.36042     19.46409     18.80600        -0.035627      0.046139      0.016789
Au     12.41719     14.82146     18.17592         0.014188     -0.020176      0.002121
Au     17.74771     19.22348     17.76480        -0.010583     -0.001003      0.020107
Au     13.94421     17.55840     16.91979         0.003466     -0.028284     -0.046303
Au      9.14748     17.58486     15.90447        -0.022559      0.008837      0.039682
Au     18.48357     19.42070     15.03650         0.028625      0.000874     -0.025447
Au     19.00995     17.21394     19.27799         0.007230     -0.020706     -0.008438
Au     19.53759     13.24502     19.20264        -0.016665     -0.017579      0.039852
Au     21.65366     15.43311     15.48444        -0.012912      0.028749     -0.005488
Au     20.64027     10.69178     15.33010         0.025984      0.020611     -0.027219
Au     18.90282     11.18257     17.44746        -0.031802      0.006821      0.002439
Au     18.89538     15.30889     14.93769        -0.011492      0.000304     -0.034055
Au     18.16585     15.13833     17.60517        -0.053267      0.039958      0.022322
Au     21.13940     12.95235     16.93529         0.018037     -0.015343      0.000209
Au     16.10272     10.66473     16.98141        -0.018996      0.029373      0.001947
Au     20.94654     15.45688     18.15584         0.010617      0.023189      0.037707
Au     10.37718     15.17806     16.15924        -0.019679      0.008545      0.017142
Au     17.56569     14.96307     20.32950         0.030325     -0.017535     -0.012576
Au     15.07273     19.67416     18.38933         0.085657      0.011349      0.000301
Au     10.53078     19.81376     16.77681        -0.002871     -0.015031     -0.042469
Au     10.94773     17.19994     18.02725         0.022917     -0.013136     -0.037228
Au     17.41753     13.04441     15.95024        -0.009940     -0.002374      0.003476
Au     17.92287     10.04078     14.95318        -0.007058      0.038031     -0.024621
Au     15.83879     20.07082     15.67799         0.017400      0.034250      0.043723
Au     15.31794     14.98236     17.17678         0.000560      0.016088      0.013628
Au     16.15382     17.23350     19.31631         0.041075     -0.035556     -0.059139
Au     13.35161     17.02574     19.62297         0.010070     -0.029848      0.033132
Au     12.02772     18.16138     14.89798        -0.021188      0.016510      0.008806
Au     13.34064     10.47880     16.39896         0.009185      0.046691     -0.013780
Au     13.12299     15.43392     15.27036         0.010901      0.027084     -0.008060
Au     14.02901     12.48528     18.22792        -0.005679      0.012527     -0.005745
Au     16.77213     12.70419     18.82713         0.021007      0.003819      0.051942
Au     11.83004     12.83626     16.25586         0.032163     -0.035163      0.022127
Au     14.58184     12.82235     15.40826         0.000804     -0.040043      0.027658
Au     14.81560     14.65291     19.86733         0.011958     -0.001528     -0.005280
Au     16.80956     17.19518     16.17072        -0.007828     -0.001424      0.009921
Au     19.88230     17.55449     16.61653         0.028718      0.010962      0.038456
Au     13.18201     20.47640     16.33426         0.034893     -0.003690     -0.007635
