75
# total energy = -211.42426035 eVAu     14.97104     17.01376      9.24899        -0.008237      0.006214      0.005917
Au     16.01935     15.10134     14.45035        -0.009392      0.010963      0.003460
Au     11.67142     19.18681     12.08951        -0.002580      0.028568     -0.001995
Au     21.12546     12.35724     11.71821         0.007872      0.014796      0.007976
Au     17.41233     15.66481      9.64145        -0.018089     -0.008173      0.003534
Au     17.04827     18.31617     10.65231        -0.001942     -0.001797      0.001114
Au     22.10844     12.94537     14.33348         0.010649     -0.005025     -0.020402
Au     13.44231     14.79239     10.20635         0.000761      0.016637     -0.015455
Au     15.15182     10.10399     14.32309        -0.010876      0.000152     -0.005159
Au     19.31119     12.74968     13.89597        -0.016527      0.013787      0.001374
Au     12.27156     17.40551     10.02658         0.015372      0.014484      0.002719
Au     19.07995     19.38857     12.31660         0.020677      0.006928     -0.002726
Au     15.88119     13.37847     10.49731         0.008402     -0.006561     -0.016716
Au     16.91816      9.95019     12.16685         0.008056      0.010195      0.005027
Au     10.95940     13.91463     13.70684         0.016162     -0.011985     -0.010577
Au     18.35321     12.03437     10.96302        -0.036544      0.017058     -0.006148
Au      9.90826     16.52752     13.51318        -0.023362     -0.060870      0.030148
Au      9.69812     19.39026     13.96790        -0.005025     -0.027957     -0.015974
Au     13.94400     13.90259     12.87797         0.000516      0.000169     -0.007416
Au     12.55086     11.45832     13.84998        -0.001069      0.004513      0.001431
Au     19.65290     10.17457     12.72401        -0.000821     -0.011240      0.021558
Au     12.68122     16.50706     12.66317         0.005685     -0.004885      0.021597
Au     16.50959     12.48245     13.26472        -0.010728     -0.010874      0.023527
Au     16.42528     19.98773     12.92440        -0.010844      0.004829      0.005327
Au     19.82321     14.29668     10.20404        -0.008700      0.003046      0.016874
Au     13.75375     20.33916     13.64503         0.021507      0.024029     -0.013197
Au     11.98693     12.63820     11.35732        -0.005276      0.002727      0.005850
Au     15.42855     16.10377     11.82686        -0.002770      0.003391     -0.001557
Au     10.72626     15.19971     11.17208         0.008251     -0.003376      0.026848
Au     17.50041     17.31548     13.35809        -0.007274      0.003838     -0.011318
Au     21.12351     15.02169     12.70493         0.007035      0.010049     -0.011759
Au     14.42545     11.21862     11.71270        -0.010856      0.026495     -0.004068
Au     14.75632     17.70425     14.18038         0.014275     -0.017328      0.000800
Au     20.49254     17.49264     13.87676        -0.001920      0.005219      0.004059
Au     17.95812     14.65992     12.27255         0.011356      0.012270      0.014754
Au     19.56398     16.88048     11.20621        -0.000945     -0.002318      0.000339
Au     14.32755     18.99134     11.22260         0.000388     -0.007193     -0.002538
Au     12.36923     19.46119     18.77305        -0.002053      0.008401     -0.020847
Au     12.41886     14.79840     18.17873         0.012765     -0.002327     -0.012411
Au     17.78087     19.22628     17.77073         0.020819     -0.021703      0.004786
Au     13.91581     17.57120     16.90402         0.002821      0.000383     -0.010683
Au      9.08685     17.53774     15.97039        -0.017468     -0.013028     -0.010864
Au     18.52262     19.42282     15.04562         0.011486     -0.010663      0.002433
Au     19.03089     17.19972     19.28752         0.003418      0.005470     -0.004452
Au     19.55416     13.23282     19.20384         0.002291     -0.003982      0.037025
Au     21.62836     15.40950     15.50481         0.010215      0.027653     -0.009037
Au     20.65407     10.71338     15.31574         0.003712     -0.019679     -0.011359
Au     18.91777     11.21134     17.42661        -0.023377     -0.012256      0.024136
Au     18.87306     15.30824     14.94197        -0.013435      0.010074     -0.003661
Au     18.13787     15.14877     17.61364        -0.008435      0.009495      0.007797
Au     21.23219     12.91531     16.99450        -0.045207      0.013719     -0.014851
Au     16.10457     10.70035     16.98876        -0.005803     -0.000620      0.000815
Au     20.94768     15.43197     18.17202         0.013183      0.021433      0.027644
Au     10.35134     15.14414     16.15770         0.007437     -0.001103      0.007747
Au     17.60118     14.94831     20.34761         0.000629     -0.001950      0.001001
Au     15.10685     19.67359     18.38138        -0.006717     -0.023891     -0.021991
Au     10.54850     19.78694     16.68987        -0.002602     -0.007000     -0.026927
Au     10.98626     17.18932     17.98058         0.014874     -0.025964      0.009300
Au     17.40961     13.06379     15.94400        -0.023630      0.003310      0.004777
Au     17.92014     10.11940     14.94065        -0.005083     -0.014672     -0.001062
Au     15.88967     20.12157     15.69097        -0.002848     -0.011443     -0.002199
Au     15.28639     15.00559     17.17689         0.019324     -0.005195      0.000681
Au     16.16801     17.19224     19.23715         0.035607     -0.009980      0.000308
Au     13.36125     17.01007     19.61907         0.012046      0.002824     -0.029979
Au     12.03776     18.20846     14.85490         0.016475     -0.000019     -0.011755
Au     13.34431     10.49132     16.41123        -0.009327      0.007913      0.000407
Au     13.09832     15.43814     15.26213        -0.009745      0.021910     -0.003457
Au     14.04593     12.48592     18.24793         0.004046      0.006498     -0.017912
Au     16.79443     12.69607     18.86180        -0.005016      0.012576     -0.002648
Au     11.82321     12.82715     16.25242         0.000762     -0.011315      0.013148
Au     14.57211     12.83457     15.42072        -0.000335     -0.000290      0.000655
Au     14.84065     14.64889     19.87941         0.012766     -0.016655     -0.007817
Au     16.79406     17.21873     16.17092         0.006043     -0.006947      0.011156
Au     19.91181     17.55099     16.64148        -0.004667     -0.004633      0.001531
Au     13.21647     20.47723     16.32447         0.011844      0.012883      0.011336
