75
# total energy = -211.38946736 eVAu      8.68170      8.96673      5.91590         0.006292     -0.001109      0.017843
Au      6.35051      8.06621      9.72374         0.008154     -0.005482      0.010697
Au      9.35182      8.28443      8.79042        -0.009405     -0.014053     -0.013898
Au      7.53817      6.63594      7.52271         0.001612      0.002852      0.008120
Au      6.07004      8.94461      7.06466         0.001528     -0.000125      0.002067
Au      9.49836      6.24943      5.62049         0.008856      0.001741     -0.015746
Au     16.73092      7.42897      8.37097         0.001680      0.003814      0.008241
Au     10.99420      8.76344      4.23572         0.005004     -0.006886     -0.000699
Au      9.99387      5.23751      8.24294         0.015580      0.008782     -0.024078
Au     16.47385     10.22818      8.84373         0.019580     -0.022870      0.010832
Au     11.48149      7.82632      6.87068        -0.010169      0.023387      0.027394
Au     12.05096      5.01645      6.35333        -0.006166     -0.017151      0.017948
Au     15.40669      5.15400      9.61582         0.004254     -0.005982      0.002875
Au     11.64577      6.08531      3.85840         0.003506     -0.002063     -0.012355
Au     14.15355      6.59462      7.49235         0.017051     -0.008736      0.015319
Au     11.96506      7.13355      9.57154        -0.023377     -0.000724     -0.017349
Au     13.61451      7.68388      4.92255         0.006418      0.013583     -0.007056
Au     12.73897      4.49422      8.96399        -0.013011      0.007360     -0.022568
Au     15.41051      9.04561      6.49417        -0.012278      0.001033      0.002276
Au     13.28840      9.39279      8.34345        -0.019044      0.013412     -0.029736
Au      4.36649     13.12483      8.80652         0.010746     -0.014823      0.017866
Au      6.83712     13.60988      7.52626        -0.001791     -0.007594      0.000827
Au      7.68150     11.60524      5.62259        -0.001951      0.007843      0.008760
Au      5.15717     11.51538      6.71473        -0.009092      0.003309      0.012014
Au      7.82777     10.77146      8.31928        -0.031392      0.010933     -0.001820
Au      4.86293     10.38257      9.26030         0.002047      0.019730     -0.007622
Au      8.68666     14.93096      9.14540         0.006563      0.012313      0.002119
Au      9.52336     13.36788      6.84714         0.006068     -0.012455     -0.008474
Au     10.36266     11.34982      4.96812         0.009493      0.007517      0.000814
Au     12.26681     12.88226      6.44640        -0.021687      0.000882      0.001503
Au     14.75749     11.72819      7.18553         0.000329     -0.006528     -0.003032
Au     11.38923     14.57214      8.57400         0.017314     -0.006999     -0.012292
Au     10.67717     10.53267      7.58098         0.008204     -0.002135     -0.000200
Au     12.63167     12.11744      9.09392        -0.005673      0.024898     -0.034721
Au      9.73965     12.31234      9.72480         0.010475      0.003821      0.000702
Au     13.02289     10.37964      5.41904        -0.002357     -0.025558      0.001817
Au      7.55143      9.87706     14.04220         0.004555      0.011272      0.000600
Au      8.05560      5.85456     10.17538        -0.007278      0.003335     -0.003423
Au      8.71008      5.32857     12.85252         0.018925      0.018712     -0.004313
Au      8.34280      9.99022     10.99802        -0.001492     -0.003289      0.004394
Au      9.23502      7.60216     14.41751         0.012667     -0.009366     -0.007835
Au      7.14212      7.59595     12.39758         0.001127     -0.019969     -0.010090
Au     11.18281      9.85499     10.28834        -0.018527      0.002353      0.009600
Au     17.31342      8.41615     10.93418        -0.004799      0.007603     -0.013185
Au     14.63244      7.79002     10.23147         0.032032     -0.017798      0.005567
Au     14.01197      6.63957     14.04848         0.013591     -0.017096      0.007690
Au     13.42433      5.09958     11.66533         0.024520     -0.004546     -0.003610
Au     16.01177      6.21056     12.15872        -0.010135     -0.000521     -0.004186
Au     10.72232      4.78213     10.93196        -0.006203      0.003721      0.008788
Au     15.36305      8.89630     13.01876         0.007147      0.006470      0.003914
Au     11.95282      8.30808     15.00817        -0.005075      0.016328      0.002439
Au     12.63111      8.21441     12.20202        -0.001785     -0.002281      0.004433
Au     10.45044      9.96063     13.06598         0.009393     -0.003388     -0.009468
Au     11.39045      5.85214     13.50461        -0.024255      0.003980     -0.000686
Au      9.91204      7.57616     11.54937         0.002337      0.007004      0.011784
Au      9.83114      9.99422     15.77491         0.011859      0.006438      0.005876
Au      6.20268     12.24791     13.42667         0.003708     -0.010039      0.007242
Au      8.94391     12.37484     12.47423         0.002351      0.011058      0.030014
Au      6.00828     15.03492      9.91297        -0.002775      0.006119     -0.021187
Au      4.33344     12.25351     11.42046        -0.011065     -0.013405     -0.016362
Au      5.64277      9.85685     11.88787        -0.004320     -0.011392      0.004418
Au      8.34813     12.34932     15.23105        -0.010047      0.006505     -0.012558
Au      6.96243     12.46367     10.46084        -0.037447      0.016750     -0.005008
Au      7.87690     15.00913     11.91759         0.017795      0.001223     -0.000076
Au     12.46057     14.37285     13.38948         0.010236     -0.000108      0.005923
Au     13.28643     14.38923     10.65209         0.012350     -0.012861      0.005367
Au     14.59341     12.72739     12.59160        -0.005772      0.007572     -0.003142
Au     13.93383     10.42486     10.99669         0.021070     -0.014271      0.011872
Au     13.33269     10.60082     14.00801        -0.015297     -0.010206     -0.003081
Au      9.69882     14.59868     14.00804        -0.015691      0.006842     -0.005837
Au     10.59334     14.97360     11.28717         0.000831     -0.002059      0.010675
Au     11.16918     12.25278     14.73302        -0.015839      0.006007      0.002186
Au     15.35516     12.69028      9.74313        -0.009432      0.004129      0.017087
Au     11.76346     12.16616     11.85741        -0.009242     -0.012173      0.011388
Au     16.60175     11.00736     11.62165         0.006624      0.005409     -0.005599
