75
# total energy = -211.27772240 eVAu      7.94944     10.13343      4.28919         0.005356      0.024177      0.032978
Au      5.14704      8.26262      8.31554        -0.016870     -0.018782      0.007132
Au      7.60276      9.30172      8.97948         0.023884     -0.026504      0.004123
Au      7.27819      6.41887      8.08439        -0.019443     -0.006451      0.024902
Au      8.53133      8.39392      6.41276        -0.000696     -0.025833     -0.030883
Au      6.46486     10.50959      6.65993        -0.017782      0.008213      0.003675
Au     13.96363      6.64128      6.02541         0.010196      0.008174     -0.028102
Au     12.66278      8.88292      4.92881        -0.005107     -0.000330     -0.014531
Au     15.68793      6.99434      8.27910        -0.009104      0.017301      0.025939
Au     12.80933      7.33236      8.48743        -0.018794      0.098769      0.076314
Au     10.06474      8.38277      4.04270        -0.002723      0.033176      0.025447
Au     12.44260      4.71254      7.49642        -0.024369     -0.026294     -0.006623
Au     13.06649      9.86944      9.62616         0.013043     -0.077339     -0.002093
Au     11.02754      6.77282      6.10840        -0.037745      0.041064     -0.013792
Au     14.19498      5.10226      9.68617        -0.005401      0.006236      0.027080
Au      9.94035      7.45612      8.73562        -0.008591      0.035251      0.010331
Au     14.54938      9.27767      7.02159         0.013107      0.004175     -0.020895
Au     15.87371      9.47340      9.56011        -0.000816     -0.005710     -0.010832
Au      9.63978      4.86982      7.78911        -0.008927     -0.004560      0.012454
Au     11.24843      9.51472      7.27642         0.008219     -0.054617     -0.013425
Au      4.10822     13.62395      8.55541         0.062417      0.000098     -0.041951
Au      6.11895     13.38773      6.66632         0.012711     -0.004209      0.005095
Au      8.30658     12.71897      5.18801         0.039688     -0.002867     -0.005891
Au      4.24927     10.85464      8.51345        -0.001032     -0.026214      0.026876
Au      6.43868     15.04849      8.94772        -0.026822      0.002428     -0.007812
Au      6.71710     12.10605      9.16326        -0.032344     -0.007585     -0.040613
Au      8.64711     14.54547      7.37186         0.056907      0.031724     -0.028313
Au     10.58431     11.02513      4.71478         0.035045      0.040524     -0.000339
Au     13.52494     13.87483      9.95868         0.000465      0.008601      0.027993
Au     10.88486     13.49165      6.00886         0.000553      0.019741      0.019163
Au     13.41379     13.99230      7.16074        -0.025473     -0.010916     -0.009276
Au     11.16596     14.97145      8.54202        -0.021202     -0.012780     -0.022168
Au      9.04842     11.36310      7.52748        -0.058302     -0.019913     -0.085190
Au     11.65537     12.13053      8.41307         0.020996      0.059766     -0.057244
Au     14.71973     11.77418      8.29460         0.025859      0.025424     -0.020209
Au     13.06598     11.48224      5.93448         0.012670      0.005107     -0.012386
Au      6.55486      8.60985     13.07190        -0.022576      0.037179      0.016698
Au      8.57689      5.26777     10.35805         0.015818     -0.012852      0.000248
Au      5.08742      9.62202     10.88757        -0.044579      0.016078      0.031715
Au      7.54470      6.00716     12.85238        -0.006369     -0.018274     -0.015679
Au      9.13168      7.87507     14.24820         0.018227      0.032846      0.026170
Au      6.15432      7.00659     10.61122         0.017892     -0.042834      0.018555
Au      8.77260      8.04022     11.30084         0.019322      0.008058     -0.050463
Au     10.19270     10.11117      9.85705        -0.010775     -0.101581      0.046509
Au     14.76902      7.50617     13.68137        -0.011703      0.002492      0.021137
Au     15.62454      7.04310     11.07874        -0.000556     -0.018037     -0.008679
Au     13.22373      5.76488     12.19247        -0.007060     -0.008091      0.000045
Au     13.33585      9.69390     12.43724        -0.001579      0.011241      0.020921
Au     16.21920      9.48381     12.31490        -0.010329      0.013648     -0.014574
Au     10.35495      5.78305     12.58448        -0.009907     -0.035926     -0.032741
Au     13.59730      9.52116     15.27132        -0.036553     -0.015401      0.010103
Au     11.69381      7.84538     11.03452         0.008175     -0.000251     -0.063123
Au     11.41928      5.00244     10.09587        -0.036777     -0.050506      0.047418
Au     10.47845      9.92916     12.69198         0.009811      0.008237      0.010090
Au     11.95214      7.58783     14.04711         0.013006      0.025323      0.032337
Au     10.81403      9.86921     15.45084        -0.007733      0.006014     -0.012033
Au      7.35812     13.30512     14.37106        -0.006113      0.022504     -0.003538
Au      8.95018     15.35041     12.87995        -0.001122      0.010858      0.024415
Au      4.91395     13.90658     13.21141         0.009841     -0.043400      0.009318
Au      8.88110     15.65077     10.06219         0.019177     -0.017256      0.011232
Au      5.66892     11.23268     13.19705         0.035666     -0.047135     -0.021263
Au      8.12542     10.52596     14.49183         0.028684     -0.030490     -0.025919
Au      4.37649     12.34566     10.97274         0.000538     -0.009163      0.027651
Au      7.87115     10.80232     11.42615        -0.017468     -0.002734      0.022773
Au      7.04346     13.78301     11.45635        -0.018874      0.026656      0.013780
Au     11.30131     14.44564     14.18819         0.030841      0.044289     -0.039078
Au      9.59292     12.61789     12.78213         0.016375     -0.018286     -0.051128
Au     12.55898     12.12383     15.09407         0.014956     -0.028707      0.005475
Au     14.99541     11.74577     11.11024        -0.001105      0.027300      0.013132
Au     15.03145     11.51595     13.92271        -0.004604      0.008172     -0.027991
Au     11.30980     14.86831     11.39529         0.021528     -0.008276      0.019271
Au      9.80808     12.50710     15.56301        -0.032291     -0.033306      0.028136
Au      9.35242     12.87528      9.97065         0.000597      0.043466      0.014505
Au     11.88925     11.91200     11.28939         0.031334      0.056579      0.065240
Au     13.56022     13.60989     12.79032        -0.023292      0.002517     -0.027598
