75
# total energy = -211.29969771 eVAu      7.95691     10.16310      4.30843        -0.012758      0.001292      0.045725
Au      5.13360      8.23439      8.33302        -0.006470     -0.026515      0.006483
Au      7.58510      9.30289      8.97852         0.006875     -0.017233     -0.002841
Au      7.27484      6.40966      8.09333        -0.015594     -0.009489     -0.000950
Au      8.51169      8.38535      6.41056        -0.022083     -0.013064     -0.009026
Au      6.43966     10.51280      6.66066        -0.009554     -0.010565      0.009930
Au     13.95157      6.64994      6.02794        -0.000030      0.002038     -0.003417
Au     12.66345      8.89338      4.91351         0.004022     -0.016051      0.001188
Au     15.67465      7.00155      8.28764        -0.015105     -0.009033      0.000192
Au     12.79881      7.33921      8.49831         0.016378     -0.004448     -0.004177
Au     10.05819      8.40413      4.05851         0.004259      0.036026     -0.000105
Au     12.43596      4.71407      7.49345        -0.012585      0.013318      0.018148
Au     13.05957      9.86883      9.62564         0.014211      0.012556      0.004328
Au     11.01776      6.78619      6.11114        -0.020526     -0.002369      0.011656
Au     14.18958      5.09318      9.69017        -0.028510      0.029359      0.004178
Au      9.92673      7.46206      8.73819        -0.004401     -0.003169     -0.018175
Au     14.54712      9.27788      7.01600         0.009696      0.017026     -0.011389
Au     15.86190      9.48190      9.55955         0.022216     -0.014864     -0.001408
Au      9.64038      4.86645      7.80032        -0.005499      0.011598     -0.010910
Au     11.24633      9.50627      7.26619        -0.016815      0.007686      0.001380
Au      4.15839     13.59099      8.54240        -0.001539     -0.002879     -0.011518
Au      6.15632     13.40333      6.64421         0.011950     -0.010355     -0.010814
Au      8.33929     12.74672      5.16658         0.020798      0.029330     -0.020554
Au      4.23861     10.81829      8.53539        -0.015031     -0.002939      0.018454
Au      6.46395     15.04815      8.93198        -0.002589      0.020575      0.004144
Au      6.70269     12.10537      9.15146         0.014248     -0.006227     -0.007561
Au      8.67513     14.57213      7.34997        -0.006198      0.039679     -0.004797
Au     10.60124     11.05018      4.70192         0.029669      0.008685     -0.019036
Au     13.51947     13.86845      9.96478         0.015042      0.016431     -0.025072
Au     10.89884     13.51287      5.99892         0.031554      0.011603     -0.011083
Au     13.40866     13.98299      7.16083         0.036008      0.028725      0.003197
Au     11.17233     14.97264      8.53850         0.014103      0.003310      0.008916
Au      9.02727     11.34974      7.50123        -0.005276     -0.018495     -0.019814
Au     11.64199     12.12847      8.39900        -0.023140     -0.002386     -0.016467
Au     14.71803     11.77691      8.29466         0.017719      0.002429     -0.000027
Au     13.07348     11.48055      5.93241         0.020526      0.020219     -0.013311
Au      6.55175      8.60619     13.07928         0.012522     -0.021270      0.016930
Au      8.57864      5.26044     10.36051         0.008705     -0.007304      0.005785
Au      5.07112      9.59866     10.90842        -0.035501     -0.014791      0.005424
Au      7.55119      6.01142     12.84469         0.006013     -0.017957      0.037117
Au      9.14224      7.88090     14.24494        -0.002335     -0.003207      0.002001
Au      6.15093      6.98323     10.61872         0.005797     -0.008663      0.017503
Au      8.76881      8.05309     11.29680        -0.014532     -0.027985     -0.014004
Au     10.18078     10.10714      9.85111         0.017893      0.012534      0.011183
Au     14.76523      7.51737     13.69098         0.001692     -0.018641      0.004080
Au     15.60437      7.04619     11.07831         0.018676      0.002002      0.024155
Au     13.21834      5.77638     12.19273        -0.001665     -0.013880      0.010921
Au     13.33549      9.69593     12.44678        -0.004574      0.015703     -0.012618
Au     16.21632      9.48595     12.31176        -0.013723      0.009721     -0.008196
Au     10.35656      5.78164     12.57612         0.007095      0.008369      0.016018
Au     13.60083      9.52995     15.28419        -0.013406     -0.012580      0.005455
Au     11.69096      7.85278     11.02635        -0.022149     -0.032376      0.021576
Au     11.41577      4.98487     10.10291        -0.007106     -0.038507      0.006263
Au     10.48495      9.93311     12.69108        -0.006470     -0.014202     -0.014619
Au     11.95364      7.59247     14.05599         0.007347      0.011995     -0.003221
Au     10.82617      9.88014     15.44588        -0.004267      0.003898      0.014244
Au      7.36635     13.30158     14.36253         0.005062      0.003195     -0.000645
Au      8.95554     15.34398     12.88155        -0.013052      0.007242      0.020499
Au      4.91618     13.88041     13.21448        -0.006636     -0.014317      0.003180
Au      8.89824     15.65116     10.06164        -0.010103     -0.011418      0.013968
Au      5.66627     11.21355     13.20572         0.023288     -0.009690      0.008533
Au      8.13437     10.52055     14.48369         0.024217      0.006356     -0.014794
Au      4.37052     12.32124     10.98129        -0.006660      0.017002     -0.003830
Au      7.85892     10.81208     11.42374        -0.010747     -0.022328     -0.021409
Au      7.04015     13.79125     11.44891        -0.010915      0.008239     -0.009216
Au     11.30817     14.43270     14.18303         0.010347      0.019077      0.014473
Au      9.59294     12.61229     12.76767         0.004274      0.019682      0.000017
Au     12.59038     12.14127     15.15948        -0.025756      0.000963     -0.041818
Au     14.99320     11.74971     11.11573         0.000128      0.008772     -0.008697
Au     15.03427     11.52237     13.92555        -0.012383     -0.020497      0.000128
Au     11.31318     14.86241     11.39630         0.008990      0.004663      0.008901
Au      9.81558     12.50173     15.56011        -0.014615     -0.009889      0.002157
Au      9.34631     12.87614      9.95558        -0.016192     -0.006680     -0.018437
Au     11.89208     11.91359     11.29257         0.002811      0.004159     -0.014434
Au     13.55445     13.60057     12.79586         0.022359      0.020800     -0.000041
