75
# total energy = -209.60877192 eVAu      8.28981      8.96278      4.78886        -0.158507      0.089757     -0.036619
Au      5.76451      8.28734      8.95144        -0.460852     -0.351317     -0.164984
Au      8.66375      7.65396      9.80525        -0.543059     -0.428570      0.059073
Au      6.71493      5.66070      9.38649         0.029484      0.091804     -0.043759
Au      7.41013      7.23662      7.01349        -0.140589     -0.030471     -0.341561
Au      6.60573      9.92248      6.75730         0.212934     -0.329659     -0.604367
Au     14.82980      8.72080      7.78845         0.290522     -0.130192     -0.099710
Au     11.04009      9.77816      5.25744        -0.021494      0.062839     -0.359827
Au     15.79004      6.85317      9.61346         0.134965     -0.087680     -0.016168
Au     13.11901      8.14586     10.03553         1.001724     -0.048113     -0.278370
Au      9.99422      7.09980      5.70151        -0.021308     -0.091540     -0.089120
Au     11.51364      4.47574      9.07667         0.052569     -0.258949     -0.106760
Au     11.69049      5.15537      6.42697         0.081917     -0.115256     -0.015211
Au     13.74663      6.03969      7.99636         0.190976     -0.241337     -0.130156
Au     11.10814      7.33252      8.41107         0.032708     -0.589167     -0.735795
Au     12.76630      7.85184      6.10356         0.174399     -0.218321     -0.297948
Au      9.37312      9.27541      7.57027        -0.339096     -0.046832     -0.654468
Au      9.11990      5.31050      7.84708         0.070276     -0.290372     -0.180423
Au      5.22043     13.73000      9.27106        -0.276224      0.182837     -0.068002
Au      7.00533     12.53759      7.47968        -0.254364      0.558129     -0.413163
Au      4.92960     10.94923      8.53845        -0.634876      0.253060      0.229849
Au      7.68016     10.38983      9.46217        -0.176474     -0.176374     -0.446637
Au      7.40589     15.20174      8.25639         0.007392      0.050256     -0.006647
Au      7.93657     13.10118     10.18310        -0.185340      1.066244     -0.239932
Au      8.85762     11.49540      5.68953        -0.011588     -0.103257     -0.287689
Au     11.56407     12.34389      6.31996         0.004856      0.122686     -0.255610
Au     12.37387     12.95720      8.93220         0.228980      0.423413     -0.182858
Au     10.17574     14.70490      9.09195        -0.093042      0.297691     -0.056852
Au      9.78574     11.85605      8.49170         0.233327      0.417109     -0.518815
Au     14.55452     11.34702      8.73972         0.163812     -0.018896     -0.042587
Au     12.00996     10.02614      8.24597         0.596206      0.413990     -0.571544
Au     13.68544     10.57544      6.05623        -0.135748      0.010665      0.196111
Au      9.32411     14.01221      6.58518        -0.026549      0.209518     -0.065507
Au      7.36110      9.79340     14.44165        -0.263242     -0.163427      0.515426
Au      3.99569      9.42308     10.80489        -0.355654      0.051352     -0.047623
Au      4.92935      6.84952     11.23627        -0.023587     -0.021003     -0.016405
Au      6.82424      8.99044     11.63424        -0.583572     -0.928114      0.425026
Au      8.31600      7.17129     14.89266         0.034310      0.095602     -0.027049
Au      5.69980      7.57623     13.88556        -0.009927     -0.007071      0.034020
Au      7.52821      6.23670     12.18500        -0.536374     -0.141029      0.194336
Au     10.38086      9.68075     10.41063        -0.016558      0.084704     -0.019268
Au      9.03647      4.65542     10.54695         0.165919     -0.421058     -0.043870
Au     14.11976      7.44726     14.78038         0.093034     -0.106325      0.024485
Au     15.62799      9.47390     10.53313         0.317963     -0.105866     -0.011608
Au     13.65036      5.26720     10.67068         0.354969     -0.376741      0.000022
Au     12.73350      5.62645     13.27134         0.133688     -0.180628      0.172824
Au     12.32792      8.48328     12.60519         0.477895     -0.168804      0.796290
Au     14.96753      7.19153     12.19422         0.260621     -0.173781      0.114588
Au      9.85546      5.42820     13.36339         0.221016     -0.367310      0.148165
Au     14.82989      9.79870     13.19950         0.327871     -0.073722      0.231209
Au     12.76713      9.71585     15.23668         0.037721     -0.033935      0.117828
Au     11.01870      6.67922     11.04860        -0.247701     -0.988215      0.343050
Au     11.43147      3.80125     11.71815         0.023365     -0.148312      0.035216
Au      9.49659      8.43969     12.66899        -0.433812     -0.326018      0.433033
Au     11.19059      7.26410     14.96753         0.189780     -0.177013      0.232393
Au      9.88307      9.56978     15.51759         0.057499      0.154047      0.330738
Au      6.48880     12.42029     13.90017        -0.692877      0.196660      0.033617
Au      8.45210     11.11807     12.11634         0.098435      0.082737      0.495275
Au      3.15819     12.10074     10.34470         0.223089     -0.041741     -0.047343
Au      5.98718     14.45338     11.90821        -0.228622      0.227756      0.100895
Au      8.57408     14.01763     12.87473        -0.084547      0.717578      0.165117
Au      3.91139     12.81129     12.93516         0.220688     -0.043732     -0.057747
Au      4.76447     10.14821     13.44860        -0.287605      0.116837      0.189393
Au      5.88827     11.59474     11.19186        -1.275221      0.348657      0.275716
Au      8.16020     15.91363     10.85103         0.003092      0.045794     -0.023139
Au     11.19742     13.70297     13.73605         0.147869      0.046462      0.261306
Au     13.07626     13.77079     11.52056         0.114843      0.225872      0.125609
Au     11.51228     12.00335     15.87136        -0.130220      0.114862      0.063785
Au     12.81033     10.78122     10.99823         0.738116      0.549060     -0.081508
Au     10.80023     15.40512     11.66254        -0.018354      0.217231     -0.036676
Au     11.00018     10.81028     13.16523         0.044546      0.317083      0.665848
Au     15.26390     12.06496     11.48434        -0.212222     -0.064564     -0.079192
Au      8.95477     12.13880     14.83569         0.531313     -0.030735      0.486403
Au     10.53558     12.56350     11.06991         0.402884      0.576511      0.063627
Au     13.51457     12.11257     13.76659         0.151630      0.226642      0.242243
