75
# total energy = -210.63058867 eVAu      7.90225      9.97151      4.16721         0.090369      0.089155     -0.044077
Au      5.25422      8.39649      8.18460        -0.100859      0.104809      0.051884
Au      7.75695      9.24246      9.01391        -0.046897      0.069568     -0.058373
Au      7.30886      6.51140      7.94646        -0.068668     -0.133272      0.155609
Au      8.74239      8.49341      6.41918        -0.072089     -0.097608     -0.123771
Au      6.56853     10.38273      6.59365        -0.067820      0.173134      0.008236
Au     13.95549      6.68068      6.02032         0.001107      0.071931     -0.012305
Au     12.67699      8.90230      4.84248        -0.116928     -0.030907      0.130334
Au     15.66437      7.05680      8.27940         0.049617      0.001613     -0.001313
Au     12.85158      7.25716      8.53853        -0.235990      0.279941      0.091075
Au     10.07158      8.23574      3.94958         0.097279      0.131810      0.008250
Au     12.45962      4.67225      7.48347        -0.139243      0.014602      0.046170
Au     13.20646      9.88001      9.65647        -0.096890     -0.207943      0.091214
Au     11.04517      6.77112      6.12675         0.140304      0.022537     -0.048572
Au     14.15604      5.05955      9.71615        -0.003836     -0.013656      0.056630
Au      9.97600      7.43104      8.78096         0.285855      0.038175     -0.012121
Au     14.52417      9.34971      6.98988         0.147455     -0.077217     -0.106692
Au     16.01324      9.67010      9.41812        -0.068019     -0.061907      0.047483
Au      9.61177      4.90633      7.72754         0.070019     -0.057445      0.038788
Au     11.43139      9.46860      7.31743         0.110238     -0.188840      0.102920
Au      3.77154     13.77261      8.45078         0.165035     -0.071449      0.058014
Au      5.89079     13.21462      6.75330         0.128052     -0.004054      0.063484
Au      8.15161     12.54605      5.28460        -0.091834     -0.089336      0.135451
Au      4.33994     11.04286      8.31484         0.069401     -0.012957      0.089530
Au      6.22807     14.82443      9.21823         0.091279     -0.068073     -0.077198
Au      6.93398     11.97914      9.15025        -0.076240      0.115428      0.023774
Au      8.46171     14.21783      7.60744        -0.110633      0.156548     -0.088497
Au     10.49094     10.87413      4.85290         0.051796      0.031186     -0.105396
Au     13.54155     14.00507      9.89748         0.023925      0.007012     -0.016807
Au     10.74254     13.39061      6.11768        -0.040072     -0.053048     -0.088893
Au     13.31036     14.07436      7.08692         0.058692      0.017044      0.020922
Au     11.05802     14.90300      8.57639        -0.010970      0.078045      0.034427
Au      9.22099     11.24361      7.55175        -0.111552      0.039387     -0.008740
Au     11.83272     12.10404      8.44198        -0.033863     -0.126426      0.053368
Au     14.76700     11.90614      8.20086         0.003494     -0.000987      0.020473
Au     13.05955     11.52959      5.87024        -0.076336     -0.070971     -0.033691
Au      6.54124      8.64647     13.00672        -0.125628      0.309625     -0.000994
Au      8.51638      5.30016     10.30005         0.028342     -0.021254      0.016809
Au      5.28853      9.86730     10.71338        -0.129569     -0.061313      0.095917
Au      7.43390      6.03263     12.81169         0.038681     -0.115708     -0.024732
Au      9.03244      7.81278     14.32286         0.027534     -0.053938      0.019124
Au      6.20658      7.15186     10.52255        -0.024851     -0.045622     -0.031391
Au      8.85645      7.99988     11.38564         0.060985     -0.059328     -0.057969
Au     10.34463     10.05393      9.92993         0.159954     -0.092621     -0.081802
Au     14.69962      7.49603     13.71751        -0.020368     -0.054912      0.002380
Au     14.72834      7.55240     10.90137         0.211184     -0.097688      0.038359
Au     13.08628      5.63817     12.30462         0.004496      0.073725     -0.067952
Au     13.37406      9.70218     12.52510        -0.158246      0.046403     -0.131826
Au     16.19633      9.54255     12.26259         0.012296      0.038586     -0.045123
Au     10.24125      5.70701     12.62654        -0.005519     -0.024953     -0.011802
Au     13.52978      9.50310     15.33978        -0.050660     -0.041909     -0.072054
Au     11.71267      7.81024     11.12617         0.170846      0.076136     -0.184312
Au     11.34401      5.00530     10.10612         0.027007     -0.159280     -0.020784
Au     10.51310      9.88347     12.79942         0.226878      0.080403      0.008544
Au     11.86097      7.53109     14.13335         0.041922     -0.065156      0.073119
Au     10.67670      9.73247     15.60579         0.047094      0.023005     -0.087143
Au      7.44209     13.33650     14.50511        -0.111852     -0.013540     -0.005666
Au      8.96187     15.38995     13.00910         0.089463     -0.011259     -0.065862
Au      5.06550     14.06130     13.20964        -0.027378     -0.101735      0.027233
Au      8.78870     15.55053     10.14430        -0.092675     -0.139889      0.036184
Au      5.77357     11.36086     13.10675         0.118483     -0.081906     -0.071139
Au      8.13977     10.52179     14.51677        -0.163631      0.013099      0.034024
Au      4.59759     12.61753     10.82727        -0.071550      0.029096     -0.010203
Au      8.05456     10.73745     11.49122        -0.149834      0.183372      0.055034
Au      7.25160     13.58618     11.61534        -0.001369      0.119109     -0.165934
Au     11.35783     14.52443     14.25198         0.009759      0.024135     -0.089455
Au      9.71526     12.62479     12.89573        -0.045858      0.022231     -0.047321
Au     12.22535     11.82694     14.33218         0.078821     -0.001031      0.110974
Au     15.01848     11.86144     11.05471         0.107953      0.016847      0.039782
Au     15.02716     11.58691     13.88557        -0.010398      0.039181     -0.062594
Au     11.28962     14.86922     11.43119        -0.012189      0.186426      0.044546
Au      9.81892     12.47944     15.69933        -0.031522     -0.018903     -0.043256
Au      9.55317     12.79227     10.02061        -0.233273      0.131360      0.125672
Au     12.00228     11.94186     11.31093         0.032962     -0.164826      0.137485
Au     13.63564     13.78151     12.71165        -0.043466     -0.061795      0.012536
