75
# total energy = -210.96463115 eVAu      7.94156     10.01620      4.18767         0.040846      0.045160     -0.006141
Au      5.21762      8.40245      8.24910        -0.001815      0.076272      0.019659
Au      7.74732      9.26363      8.98087        -0.115447      0.000446     -0.045833
Au      7.29687      6.47783      8.05484        -0.050686     -0.013040      0.040936
Au      8.62590      8.36591      6.35725        -0.013380      0.017192      0.040478
Au      6.55560     10.42344      6.61709        -0.063274      0.061386      0.039863
Au     13.97883      6.68145      6.04529        -0.025665     -0.033296     -0.043182
Au     12.69998      8.89009      4.89437        -0.043472     -0.026042     -0.013636
Au     15.69413      7.04468      8.27141        -0.014786     -0.068643      0.039412
Au     12.86448      7.33472      8.52869        -0.017502      0.050177      0.048015
Au     10.11563      8.31849      3.95621        -0.002312      0.054571     -0.028575
Au     12.40761      4.73217      7.51549        -0.038738     -0.015853     -0.012799
Au     13.20742      9.85788      9.68094        -0.073619     -0.068209      0.005770
Au     11.04394      6.77062      6.07751         0.058266     -0.034756      0.009923
Au     14.12108      5.07402      9.70733         0.072046      0.089951      0.000790
Au     10.01651      7.42804      8.72591         0.047959     -0.004042      0.019082
Au     14.66923      9.33385      6.91902        -0.058131      0.005820      0.048237
Au     15.99816      9.59474      9.44480        -0.040779     -0.015546      0.047720
Au      9.61007      4.88882      7.75491         0.037630     -0.041897      0.032284
Au     11.38852      9.45836      7.31163        -0.011709      0.018308      0.019324
Au      3.86226     13.75462      8.49813         0.064813      0.021439     -0.004603
Au      5.95883     13.27445      6.77346         0.004526     -0.064905     -0.095456
Au      8.16542     12.56614      5.29666        -0.042085     -0.029372      0.012199
Au      4.32243     11.02682      8.41441         0.032417     -0.073931     -0.024649
Au      6.30374     14.90910      9.09553        -0.078014      0.083617      0.082552
Au      6.87309     12.03974      9.18841        -0.057962     -0.035819      0.001171
Au      8.48530     14.39742      7.49394         0.116496     -0.007651     -0.042941
Au     10.53397     10.93973      4.79682        -0.041412     -0.020671      0.008327
Au     13.50698     13.96493      9.90916         0.018190     -0.010638      0.007039
Au     10.73918     13.38522      6.13274         0.013029      0.002782     -0.047267
Au     13.29990     14.02620      7.11624         0.037671     -0.031332      0.039425
Au     11.05187     14.90811      8.57079         0.017690      0.032328      0.011049
Au      9.16460     11.25241      7.56428         0.027637      0.071487     -0.016985
Au     11.75634     12.07416      8.49725         0.000214      0.062854     -0.050550
Au     14.73058     11.83570      8.22962         0.025698      0.035553     -0.028977
Au     13.03234     11.48277      5.93067         0.029081      0.011977     -0.013446
Au      6.55530      8.68990     12.98988         0.015278     -0.171411      0.003267
Au      8.56473      5.27703     10.33564        -0.025083     -0.003380     -0.026699
Au      5.13527      9.79757     10.80567        -0.006370     -0.015315     -0.047069
Au      7.46451      6.02510     12.81061         0.007627      0.113046     -0.069015
Au      9.05279      7.83016     14.26889        -0.012732     -0.025662     -0.023843
Au      6.18274      7.15800     10.56197         0.048670     -0.097668      0.030101
Au      8.87844      8.01710     11.30018        -0.085344     -0.100393      0.191323
Au     10.33808     10.04359      9.92488         0.092714      0.069998     -0.004399
Au     14.68653      7.47384     13.70966         0.057262      0.032025     -0.060082
Au     15.18589      7.30478     10.98930         0.139279     -0.095986      0.064320
Au     13.12439      5.65922     12.26143         0.040406      0.009028     -0.042878
Au     13.37743      9.68104     12.46943        -0.026882     -0.024489     -0.012887
Au     16.20265      9.57373     12.25571        -0.011583     -0.105071     -0.002645
Au     10.27172      5.72180     12.60756         0.016251     -0.036712     -0.044136
Au     13.49150      9.47245     15.26839         0.047241      0.023723      0.022364
Au     11.76053      7.79311     11.08040         0.034178      0.053272     -0.074612
Au     11.36014      4.83474     10.14945        -0.033029      0.081252     -0.023074
Au     10.55581      9.91617     12.77780        -0.016680     -0.039943     -0.023672
Au     11.86498      7.46463     14.14036         0.024047      0.073676     -0.016000
Au     10.68348      9.74620     15.54291         0.000905      0.038629      0.005679
Au      7.38180     13.32547     14.44636        -0.043807      0.055847     -0.013521
Au      8.99770     15.39035     12.95730        -0.068633      0.010345     -0.003900
Au      4.93496     13.99380     13.27415         0.105586     -0.138953     -0.098686
Au      8.79699     15.58821     10.12371        -0.027683      0.007704      0.014419
Au      5.76797     11.33940     13.10215        -0.116256      0.134178     -0.004453
Au      8.09481     10.50629     14.51596         0.063335      0.024759      0.027136
Au      4.49537     12.55828     10.87995         0.027880      0.009920      0.126990
Au      8.00569     10.77417     11.46606         0.007127      0.020082     -0.025202
Au      7.13072     13.72610     11.57688        -0.067731      0.026169     -0.009490
Au     11.35682     14.51615     14.18384        -0.020583      0.008611      0.041105
Au      9.66144     12.63129     12.85151        -0.032268      0.008094      0.016864
Au     12.30709     11.90891     14.54416         0.008286      0.012116      0.038913
Au     15.06810     11.87488     11.03878        -0.058561     -0.015026      0.026581
Au     15.01039     11.58739     13.84690        -0.002606     -0.027403      0.035372
Au     11.32185     14.98522     11.40709         0.010790     -0.057696     -0.038201
Au      9.77020     12.47714     15.62513         0.015071      0.027037      0.003423
Au      9.45691     12.83925     10.04516         0.030063     -0.024325     -0.020655
Au     11.97544     11.92944     11.37239         0.007969     -0.007676     -0.053466
Au     13.62221     13.76063     12.71221         0.002443      0.001918     -0.007494
