75
# total energy = -211.39319977 eVAu      8.68408      8.96768      5.91287        -0.007067     -0.005958      0.025796
Au      6.35076      8.05296      9.72998         0.005461      0.002369      0.012576
Au      9.34190      8.29009      8.79007        -0.008743     -0.007132      0.007172
Au      7.54164      6.63031      7.52635         0.015744     -0.017887     -0.001418
Au      6.07447      8.93591      7.07344         0.002945     -0.003274     -0.005251
Au      9.49809      6.24880      5.61342        -0.000695      0.002884      0.011479
Au     16.72758      7.42735      8.36789         0.012965     -0.000278      0.012956
Au     10.99374      8.76463      4.22994         0.014350     -0.003681      0.007072
Au     10.00157      5.23973      8.23924        -0.020891      0.013476     -0.013028
Au     16.47843     10.22460      8.84289         0.007768     -0.013032      0.000709
Au     11.47082      7.83427      6.87055         0.001958      0.009596      0.010569
Au     12.05666      5.02338      6.34685        -0.015965     -0.010256     -0.000777
Au     15.40312      5.15379      9.61054         0.017275     -0.013900      0.010178
Au     11.64112      6.08621      3.84944         0.013012     -0.002103     -0.007982
Au     14.14948      6.59593      7.49456         0.015276      0.002233      0.001751
Au     11.95651      7.13636      9.56812        -0.011131      0.017384      0.007309
Au     13.61140      7.67787      4.92324        -0.005892      0.004340     -0.004650
Au     12.73375      4.49811      8.95909         0.007570     -0.005312     -0.006409
Au     15.40745      9.04281      6.49325        -0.010805      0.004077      0.016953
Au     13.27911      9.39616      8.34282        -0.005620      0.009222     -0.005223
Au      4.39417     13.11820      8.82400        -0.005336     -0.000101      0.028599
Au      6.84807     13.62196      7.51804         0.015632     -0.014380     -0.005014
Au      7.69556     11.60920      5.62287        -0.016362      0.014487      0.018606
Au      5.17691     11.51117      6.72871        -0.012332      0.007415     -0.007799
Au      7.81256     10.78227      8.32415         0.002656      0.005357      0.006754
Au      4.85516     10.36900      9.26448         0.010324      0.002857     -0.004052
Au      8.70201     14.94798      9.13591         0.024890     -0.010470     -0.007358
Au      9.53669     13.37656      6.84328        -0.011339     -0.013654     -0.005081
Au     10.37183     11.35147      4.96990         0.027521      0.009112     -0.033532
Au     12.27647     12.88482      6.44368        -0.012334     -0.020155     -0.002044
Au     14.76193     11.72619      7.18895        -0.005983     -0.010943     -0.011826
Au     11.40317     14.57535      8.56961         0.018240      0.006475      0.008858
Au     10.66651     10.53882      7.57926         0.012353      0.000436      0.044241
Au     12.63007     12.12043      9.09288        -0.007626     -0.000727     -0.003975
Au      9.73618     12.31867      9.72476        -0.031929      0.005523      0.004097
Au     13.02941     10.37283      5.42129        -0.023096     -0.001819     -0.000451
Au      7.55639      9.87068     14.04482        -0.009989     -0.009706     -0.016860
Au      8.05987      5.84599     10.18196         0.014834      0.008375     -0.019781
Au      8.71752      5.32364     12.86113         0.012210      0.011757     -0.024430
Au      8.33211      9.99230     10.99977        -0.007076      0.018267     -0.001480
Au      9.24285      7.59821     14.42166        -0.005966      0.008351     -0.000049
Au      7.14238      7.58243     12.40495         0.002634      0.005303     -0.009723
Au     11.17084      9.85847     10.28968         0.010799      0.013391     -0.014890
Au     17.31025      8.41604     10.93179        -0.006246      0.004693     -0.002337
Au     14.63016      7.78861     10.22938        -0.008857      0.010136      0.002703
Au     14.01266      6.63874     14.04718        -0.007449     -0.006188      0.012102
Au     13.42749      5.09734     11.66209        -0.008502     -0.001870      0.006260
Au     16.00535      6.21166     12.15739         0.018648      0.000208     -0.014994
Au     10.72586      4.77871     10.93381        -0.015034      0.023903      0.012108
Au     15.35916      8.89837     13.01601         0.009040      0.007237      0.008009
Au     11.95411      8.31173     15.00980         0.007453      0.009800     -0.000262
Au     12.62626      8.21576     12.20279         0.013509     -0.010187     -0.009421
Au     10.44683      9.96265     13.06573        -0.002572     -0.000298      0.015571
Au     11.39121      5.85137     13.50928         0.008669      0.000026     -0.017648
Au      9.90958      7.57938     11.55450        -0.010019     -0.015757     -0.013775
Au      9.83309      9.99616     15.77843         0.015344     -0.004087     -0.002244
Au      6.19309     12.23034     13.43070        -0.005717     -0.012214     -0.009899
Au      8.93023     12.37844     12.47187        -0.015749      0.003085     -0.013968
Au      6.02650     15.06048      9.88705        -0.004120      0.016103     -0.000330
Au      4.31331     12.21999     11.42998        -0.010418      0.001602     -0.007939
Au      5.63581      9.83756     11.89228         0.016437     -0.025577      0.015120
Au      8.34481     12.34525     15.22568        -0.020921      0.019198      0.005300
Au      6.93970     12.47491     10.45989         0.016691      0.007825      0.029649
Au      7.88759     15.02063     11.90311         0.005323     -0.003707     -0.010702
Au     12.46383     14.37526     13.39220        -0.002900     -0.020250      0.012700
Au     13.29480     14.38771     10.66060        -0.009769     -0.014613     -0.032760
Au     14.59302     12.72790     12.58972        -0.004922     -0.002648      0.019299
Au     13.93020     10.42516     11.00131        -0.007929     -0.017145     -0.017299
Au     13.33039     10.60513     14.01253        -0.024788     -0.002189     -0.012732
Au      9.69644     14.59830     14.00056        -0.013202      0.013775     -0.001819
Au     10.60445     14.97312     11.28420        -0.009455      0.003530      0.001541
Au     11.15945     12.25798     14.73456         0.016852     -0.001323     -0.002019
Au     15.35508     12.68787      9.74341        -0.006848      0.006244      0.008154
Au     11.75281     12.16635     11.86194         0.022321      0.008672     -0.005875
Au     16.60036     11.01005     11.61795         0.014890     -0.015906      0.004916
