75
# total energy = -211.37448388 eVAu      8.68845      8.97164      5.93830        -0.019734     -0.003518     -0.024770
Au      6.35272      8.09683      9.70930        -0.011477      0.014886     -0.000762
Au      9.36407      8.26781      8.78538         0.006698      0.009183     -0.004887
Au      7.52702      6.65332      7.50767        -0.009853      0.001807      0.017772
Au      6.05561      8.96498      7.04468        -0.000344     -0.000646      0.012216
Au      9.50041      6.25924      5.62084         0.048389     -0.016106     -0.028638
Au     16.74149      7.43271      8.37435         0.007958     -0.010554     -0.011324
Au     10.98648      8.75238      4.24753         0.032100     -0.006949      0.002881
Au      9.98055      5.23783      8.24110         0.030306      0.010733     -0.005620
Au     16.47602     10.22805      8.85212        -0.002413      0.002583     -0.008085
Au     11.50403      7.80996      6.87289        -0.025362      0.022518      0.006148
Au     12.04582      4.99176      6.36830        -0.019292      0.015013     -0.030046
Au     15.41688      5.14455      9.62496        -0.007311     -0.014184     -0.016511
Au     11.66905      6.07744      3.87422        -0.017596      0.002589      0.010558
Au     14.16571      6.58341      7.49009         0.020993     -0.001589      0.022053
Au     11.97872      7.13284      9.56935        -0.004402     -0.026782      0.013900
Au     13.62778      7.69682      4.92175        -0.006725      0.008022     -0.014524
Au     12.74137      4.49078      8.96661        -0.003942      0.002587      0.026411
Au     15.41799      9.04792      6.49684        -0.000782      0.013682      0.014268
Au     13.29933      9.39116      8.34273         0.012966      0.009835     -0.002194
Au      4.30170     13.13824      8.76699         0.000109     -0.009406      0.003626
Au      6.80670     13.57742      7.55150         0.011504      0.020745     -0.010320
Au      7.64242     11.59127      5.62206         0.024851      0.016916     -0.001479
Au      5.10498     11.52225      6.67945        -0.013825      0.009204      0.026995
Au      7.83721     10.75804      8.31345         0.008970      0.010204      0.022391
Au      4.88367     10.42830      9.24847        -0.005478     -0.033311      0.012106
Au      8.65326     14.90474      9.17720         0.007263     -0.004551     -0.025144
Au      9.48875     13.34866      6.86118         0.012755     -0.018239     -0.020759
Au     10.33253     11.33963      4.96883         0.015367      0.013066      0.015249
Au     12.23912     12.88266      6.43506        -0.018995     -0.001490      0.010184
Au     14.75138     11.73016      7.18395         0.012794     -0.006827     -0.003190
Au     11.35870     14.56256      8.57594         0.006257      0.022944     -0.001314
Au     10.69223     10.52146      7.57666         0.008648     -0.007543      0.000095
Au     12.63703     12.12778      9.07857         0.008645     -0.057650      0.025273
Au      9.76432     12.29831      9.72616        -0.021271     -0.001573      0.011377
Au     13.01628     10.38600      5.41941        -0.027855     -0.036783     -0.004420
Au      7.55164      9.89541     14.03548         0.019397      0.006894      0.004934
Au      8.03971      5.87056     10.16191         0.004279      0.003101     -0.002627
Au      8.70328      5.34715     12.83150        -0.014573     -0.014897      0.020846
Au      8.36221      9.98576     10.99749         0.006817      0.004431      0.003246
Au      9.22597      7.61119     14.40486         0.012563      0.012113      0.013844
Au      7.13506      7.61769     12.37899         0.009959     -0.010852      0.006664
Au     11.19865      9.84527     10.28136         0.006792      0.008288      0.032178
Au     17.32405      8.42306     10.93947         0.009389      0.002974     -0.013226
Au     14.65457      7.77431     10.23113        -0.057779      0.041891     -0.005439
Au     14.01319      6.62323     14.05724         0.005957      0.020874     -0.007262
Au     13.42982      5.09977     11.66761         0.000850      0.001327     -0.003969
Au     16.02034      6.21113     12.16791        -0.005485     -0.023142      0.001115
Au     10.72186      4.78673     10.92998         0.003568     -0.004222     -0.023036
Au     15.38402      8.89124     13.02547        -0.041244      0.006925      0.006864
Au     11.94879      8.30322     15.00864        -0.000331      0.005432      0.000389
Au     12.65171      8.20505     12.20366        -0.010143     -0.000409     -0.012966
Au     10.46653      9.95379     13.06342         0.001763     -0.004938      0.006974
Au     11.38095      5.86037     13.49915         0.016895     -0.005982      0.011847
Au      9.91996      7.57753     11.54395         0.015385      0.006477     -0.001760
Au      9.82850      9.99989     15.77337         0.012021     -0.006196     -0.018701
Au      6.22541     12.28291     13.42031        -0.023810      0.008647     -0.008220
Au      8.97300     12.37131     12.49120         0.010003     -0.003987      0.001969
Au      5.96653     14.98086      9.95501         0.002737      0.017710     -0.003702
Au      4.36525     12.31761     11.39932         0.009187     -0.013241     -0.007763
Au      5.65444      9.89968     11.88044        -0.018890     -0.007113     -0.026678
Au      8.34878     12.36165     15.24446         0.001023     -0.001263     -0.006729
Au      6.99766     12.44695     10.45620        -0.010582     -0.002062      0.010209
Au      7.86248     14.98023     11.94571        -0.021180      0.017447     -0.001733
Au     12.45565     14.37308     13.38912         0.021312      0.004544     -0.004274
Au     13.27115     14.38615     10.65123         0.019519      0.001516      0.000220
Au     14.59041     12.72527     12.58940         0.006515      0.015188      0.005587
Au     13.95361     10.41217     10.99450        -0.007784     -0.002127     -0.027835
Au     13.32919     10.58809     13.99357         0.003736      0.000273      0.022242
Au      9.70150     14.61221     14.02843        -0.019151     -0.003283     -0.010985
Au     10.57972     14.96747     11.29938        -0.004500     -0.003981     -0.002694
Au     11.17074     12.25655     14.73031        -0.011723     -0.022309      0.009133
Au     15.34993     12.68930      9.74793         0.002499      0.002625      0.008183
Au     11.78275     12.15231     11.85627        -0.005621     -0.001383     -0.009128
Au     16.61546     11.01744     11.62873        -0.009286     -0.006103     -0.007236
