75
# total energy = -211.52368828 eVAu      8.29916      8.92966      4.82401        -0.023798      0.016840     -0.002303
Au      5.54959      8.26252      8.78818        -0.011031     -0.008109      0.016715
Au      8.74866      7.61380      9.88488        -0.003053     -0.002275     -0.011331
Au      6.80087      5.73999      9.38718        -0.007462      0.020506      0.002076
Au      7.39428      7.21393      6.98142         0.012760     -0.003594      0.007109
Au      6.55995      9.96933      6.68543         0.024234     -0.016291     -0.005673
Au     14.99337      8.56456      7.71478        -0.003520     -0.012280     -0.007885
Au     11.03295      9.73307      5.25175         0.002850     -0.011526     -0.006072
Au     15.90828      6.71992      9.61614         0.002971     -0.003927     -0.001501
Au     13.32796      8.12208      9.98169         0.020208      0.015792     -0.011197
Au     10.02710      7.04003      5.71513         0.011861     -0.019257      0.008503
Au     11.66090      4.34200      9.06732         0.008928      0.000552      0.012995
Au     11.78023      5.08946      6.42784         0.000927     -0.000041     -0.007969
Au     13.89831      5.85410      7.98309        -0.001696      0.015763      0.011435
Au     11.21306      7.26016      8.37061         0.015280      0.016662     -0.005010
Au     12.85347      7.72859      6.03852         0.023238     -0.017273      0.009230
Au      9.32461      9.28409      7.55767        -0.007813     -0.006480      0.014891
Au      9.20895      5.27254      7.86440        -0.007971      0.004434     -0.002997
Au      5.11417     13.86099      9.23353         0.000830     -0.013037      0.007091
Au      6.71632     12.75756      7.15872         0.015243     -0.017446      0.013577
Au      4.83519     11.07303      8.47657        -0.027588      0.006237      0.027781
Au      7.53031     10.41868      9.43092         0.006973      0.029645     -0.020038
Au      7.32212     15.27588      8.25257         0.011680     -0.003530      0.004517
Au      7.81229     13.23554     10.18220        -0.005357      0.009249     -0.000456
Au      8.78414     11.52349      5.63730        -0.002072     -0.020424      0.008034
Au     11.50679     12.34137      6.27410        -0.014023      0.008538     -0.007420
Au     12.40094     13.06761      8.89442        -0.006752      0.013801     -0.001898
Au     10.09743     14.82772      9.08077         0.014765     -0.012100     -0.000219
Au      9.70293     12.00276      8.42913        -0.007153     -0.001319      0.004359
Au     14.53632     11.18667      8.78931         0.030684     -0.017169     -0.003405
Au     11.99219     10.06656      8.24222        -0.052480     -0.021528      0.042565
Au     13.64328     10.47315      6.11566         0.018232      0.019956      0.005784
Au      9.21256     14.06894      6.55203         0.010090      0.011493     -0.004575
Au      7.26117      9.87979     14.68103        -0.016830     -0.012061     -0.005694
Au      3.92111      9.47741     10.74863        -0.007025      0.008095     -0.000829
Au      4.91546      6.90302     11.19196         0.005182      0.012198      0.000557
Au      6.77268      8.93037     11.66532        -0.008347     -0.015289      0.006041
Au      8.37761      7.22891     14.81106        -0.009684      0.016128     -0.008007
Au      5.70227      7.64736     13.89909         0.003651      0.008993     -0.010214
Au      7.42791      6.07753     12.25765        -0.011408     -0.006821      0.005881
Au     10.23968      9.89571     10.39266         0.002364      0.031587     -0.010054
Au      9.12846      4.58478     10.57869         0.018270     -0.010793     -0.028091
Au     14.20421      7.37830     14.76616         0.006806      0.001209      0.003401
Au     15.82658      9.35057     10.57886         0.002363     -0.005271      0.012809
Au     13.93450      4.94404     10.67689        -0.021022      0.032942     -0.003246
Au     12.88238      5.49463     13.26751         0.001141     -0.006488     -0.013422
Au     12.44753      8.42488     12.61647         0.012602      0.016477     -0.011545
Au     15.12873      7.01508     12.21571        -0.010443      0.011611     -0.010903
Au      9.92769      5.33861     13.32746         0.030278      0.002253      0.016052
Au     14.95381      9.71022     13.26124         0.017122     -0.023690     -0.007913
Au     12.79574      9.65299     15.23978         0.004983     -0.018243     -0.003039
Au     11.23795      6.47927     11.03955         0.007919     -0.018057      0.002660
Au     11.56732      3.65704     11.71823         0.008038      0.008851     -0.003726
Au      9.53430      8.35533     12.58725         0.004090      0.003771      0.011034
Au     11.26254      7.21057     14.92770        -0.005529      0.008138      0.005134
Au      9.88756      9.56732     15.55882         0.009884     -0.007442     -0.009800
Au      6.42061     12.57087     13.93402        -0.036629     -0.002494     -0.009659
Au      8.33525     11.17867     12.20068         0.011466      0.034703     -0.003813
Au      3.10970     12.17725     10.32558         0.018597      0.007374     -0.007000
Au      5.89741     14.60042     11.92554        -0.000194     -0.016116      0.000717
Au      8.45795     14.40130     13.14800         0.006617     -0.024662     -0.008982
Au      3.86903     12.89531     12.93542         0.018279      0.006458     -0.007565
Au      4.72036     10.23402     13.50157        -0.006871      0.008002     -0.000354
Au      5.72306     11.67790     11.21693        -0.054139      0.012680      0.011713
Au      8.08102     15.99124     10.86005         0.008643     -0.007135     -0.007264
Au     11.15639     13.76180     13.79706        -0.002105     -0.020681      0.005206
Au     13.05121     13.79736     11.58485        -0.009004      0.013198      0.007568
Au     11.50516     11.95680     15.85722        -0.019770      0.015286      0.004664
Au     12.79139     10.82026     10.99118        -0.059826     -0.029847      0.006310
Au     10.71451     15.48548     11.71572         0.010017      0.011165     -0.007481
Au     10.96280     10.83078     13.19412        -0.012436     -0.014291     -0.000509
Au     15.21277     11.95354     11.51172         0.008098      0.011746     -0.023431
Au      8.94395     12.22076     14.88839         0.025222     -0.016234     -0.002031
Au     10.47634     12.73211     11.08732        -0.008540     -0.001508     -0.000880
Au     13.51636     12.07602     13.79646         0.008185     -0.007605      0.008990
