75
# total energy = -210.72653931 eVAu      7.90759      9.97759      4.15939         0.065337      0.076911     -0.020990
Au      5.24557      8.40125      8.18769        -0.062259      0.066678      0.047262
Au      7.74950      9.24465      9.00793         0.042255      0.056012     -0.031972
Au      7.29917      6.49668      7.95631        -0.006266     -0.058538      0.144905
Au      8.73449      8.48368      6.40474        -0.075098     -0.095169     -0.008304
Au      6.56088     10.39436      6.59107        -0.030784      0.099225     -0.002661
Au     13.95832      6.68415      6.01688        -0.001466      0.045684      0.048896
Au     12.66958      8.90034      4.84999        -0.063200     -0.017704      0.082419
Au     15.67229      7.05455      8.27801        -0.028632     -0.005892      0.007008
Au     12.84101      7.27101      8.54123        -0.020543      0.072245      0.019628
Au     10.07776      8.24480      3.94551         0.073373      0.093895     -0.006072
Au     12.45046      4.66989      7.48625        -0.083425      0.062754      0.058324
Au     13.20359      9.86574      9.66221        -0.002681     -0.072905      0.050516
Au     11.05508      6.76963      6.11986         0.080898      0.000816     -0.047983
Au     14.15785      5.05531      9.72001        -0.039011      0.051984      0.001626
Au      9.99426      7.42897      8.77795         0.076131      0.021260     -0.033174
Au     14.54212      9.34430      6.97799         0.124461     -0.014552     -0.066619
Au     16.01093      9.66607      9.42069        -0.078979     -0.040226      0.025326
Au      9.61442      4.90045      7.72916         0.040706     -0.010964      0.045040
Au     11.44001      9.45505      7.32098         0.014696     -0.032426      0.053621
Au      3.78186     13.76898      8.45439         0.104215     -0.043989      0.027711
Au      5.89649     13.21772      6.75634         0.071984      0.014929      0.024479
Au      8.14524     12.54032      5.29180        -0.051914     -0.054195      0.072050
Au      4.34037     11.04209      8.32152         0.038422     -0.020116      0.083411
Au      6.23156     14.82424      9.20986         0.054576     -0.007891     -0.062500
Au      6.92293     11.99030      9.14970        -0.022791      0.033863      0.049458
Au      8.45317     14.23637      7.59733         0.005826      0.124147     -0.092133
Au     10.49406     10.87705      4.83848         0.049743      0.056065     -0.046543
Au     13.54603     14.00900      9.89585        -0.024861     -0.032396      0.023661
Au     10.74061     13.38998      6.10860        -0.027890     -0.053943     -0.010700
Au     13.31563     14.07679      7.08816        -0.001239     -0.025871      0.026651
Au     11.05801     14.91259      8.57715        -0.013566     -0.000883      0.021276
Au      9.21218     11.24784      7.54746        -0.017412     -0.013304      0.063300
Au     11.83293     12.09996      8.44268        -0.085666     -0.085692      0.075758
Au     14.77066     11.90756      8.20021        -0.031420     -0.058688      0.033024
Au     13.05677     11.52656      5.86475        -0.067151     -0.056386      0.022981
Au      6.52921      8.66494     13.00914        -0.006992      0.088960     -0.038287
Au      8.51718      5.29413     10.30207         0.045827     -0.006944     -0.004898
Au      5.27196      9.86072     10.72192        -0.109854     -0.050195      0.056350
Au      7.43542      6.02384     12.81100         0.004530      0.004812     -0.021751
Au      9.03285      7.80623     14.32797         0.018621     -0.001073     -0.036280
Au      6.20118      7.14587     10.52058         0.008682     -0.014310      0.007740
Au      8.85745      7.99170     11.38394         0.063262      0.064748     -0.052571
Au     10.35534     10.04702      9.92416        -0.020856      0.004926     -0.020947
Au     14.70073      7.48954     13.72053        -0.029169     -0.009586     -0.023750
Au     14.74929      7.54233     10.90542         0.211555     -0.106737      0.040430
Au     13.08738      5.64112     12.30114        -0.015364      0.067048     -0.059331
Au     13.36988      9.70452     12.52149        -0.036587     -0.003188     -0.070730
Au     16.20167      9.54556     12.26039        -0.026698      0.026416     -0.022147
Au     10.23997      5.70070     12.62806         0.038867      0.009330     -0.033989
Au     13.52817      9.49827     15.33788        -0.031626     -0.035164     -0.083742
Au     11.72595      7.81195     11.11451         0.079930      0.020366     -0.054918
Au     11.34672      4.98614     10.10581         0.012095     -0.125196      0.017994
Au     10.52890      9.88837     12.80406         0.067179      0.042737     -0.049099
Au     11.86494      7.52223     14.14394         0.006188     -0.070621      0.026249
Au     10.67902      9.73302     15.60198         0.007699      0.019349     -0.075820
Au      7.43120     13.33722     14.50827        -0.060312     -0.015128     -0.022791
Au      8.96833     15.39381     13.00607         0.050740     -0.011681     -0.040511
Au      5.06180     14.05541     13.21326        -0.028351     -0.107429      0.005311
Au      8.78229     15.54483     10.14621        -0.050722     -0.046282      0.012291
Au      5.77875     11.35701     13.10349         0.013458      0.030558     -0.041915
Au      8.12498     10.52147     14.52526        -0.058564     -0.009965      0.027794
Au      4.58677     12.61994     10.82723        -0.042542     -0.004137      0.051315
Au      8.04157     10.74987     11.49670         0.014626      0.065443     -0.037030
Au      7.24806     13.59781     11.60669        -0.058815      0.106333     -0.066521
Au     11.35991     14.53013     14.24733         0.015086     -0.005477     -0.063553
Au      9.71145     12.63159     12.89846        -0.032255     -0.025499     -0.046834
Au     12.23285     11.82883     14.34486         0.052067      0.037058      0.114648
Au     15.03242     11.86573     11.05864         0.062315      0.020701     -0.009657
Au     15.03036     11.59180     13.88283        -0.016176      0.008745     -0.053626
Au     11.29066     14.88989     11.43545         0.031508      0.113240     -0.016746
Au      9.81529     12.47941     15.69982        -0.038213     -0.021655     -0.074633
Au      9.53638     12.80567     10.02939        -0.076519     -0.018941      0.056587
Au     12.00671     11.93345     11.32158        -0.024797     -0.070949      0.039742
Au     13.63426     13.77958     12.71259        -0.046195     -0.045351     -0.013053
