75
# total energy = -206.30757411 eVAu      8.46340      8.56216      6.12382        -0.281683     -0.138802     -0.698012
Au      9.47778      5.12422      8.22020        -0.474969     -0.942906     -0.055410
Au      5.91950      7.92992      9.31430        -0.936850     -0.559613      0.102625
Au      8.72168      7.78608      8.91016         0.616344      0.596055      0.171758
Au      7.32852      5.57934      9.96874        -0.657429     -0.743750     -0.439080
Au      7.10762      6.38530      7.25192        -0.609723     -0.696705     -0.197638
Au      5.78292      8.77814      6.70542        -0.956935     -0.288784     -0.629049
Au      9.31404      5.99330      5.60704        -0.534919     -0.699508     -0.916935
Au     13.06448      7.10578      5.53130         0.893881     -0.391540     -0.925946
Au     10.72542      8.18386      4.59742        -0.043764      0.065883     -1.270779
Au     15.92224      6.94230      9.18052         1.106301     -0.270841     -0.519362
Au     10.95040      7.46372      7.21716        -0.068142      0.431329      0.838337
Au     14.51518      4.75854     10.18700         0.567543     -1.107869     -0.132607
Au     11.65422      4.91700      6.54010         0.410925     -1.142770     -0.579179
Au     13.47336      6.25356      8.11848         0.347834     -0.415043     -0.414231
Au     11.20562      6.64510      9.89482         0.106254      0.947541      0.033234
Au     11.98022      4.14768      9.19202         0.069460     -0.960099     -0.076195
Au     14.80104      8.52560      7.17422         0.766639      0.120021     -0.574577
Au     12.70072      8.96552      8.82530        -0.684290     -0.282322      0.599970
Au      9.93442     10.77266      5.22970         0.179941      0.528586     -0.761654
Au      6.10610     12.58006      7.67656        -0.595040      0.730611     -0.873219
Au      7.19152     10.96436      5.69772        -0.468674      0.466842     -0.978687
Au      4.69416     10.38864      8.68664        -1.188877     -0.191486     -0.448148
Au      5.05896     14.15918      9.69434        -0.186524      1.039449     -0.933772
Au      7.44080     10.22584      8.30382         0.555022     -0.053884      0.659651
Au      7.80644     14.11448      9.25714         0.313586      0.925114     -0.107051
Au      9.14816     11.79698      9.94488        -0.210406     -0.676318      0.349483
Au      6.35528     11.88466     10.38522         0.753248     -0.456209      0.065271
Au      8.88206     12.52798      7.19492         0.022328      0.927571     -0.581497
Au     11.67222     12.32092      6.86138         0.106506      0.442787     -0.986068
Au     13.33242     13.72980      8.57712         0.519728      0.879346     -0.355597
Au     15.31968      9.56116      9.77044         0.974288      0.584867     -0.573616
Au     10.61058     13.97042      8.91328        -0.287555      0.942949     -0.211960
Au     12.44734      9.73308      6.09594         0.494257      0.560506     -0.748919
Au     10.22122     10.11342      7.83744        -0.109055     -0.528613      0.688638
Au     11.94362     11.60146      9.55228        -0.483370     -0.713055      0.407407
Au     14.10928     11.19358      7.83070         0.974919      0.195149     -0.514561
Au      6.64034      9.45608     13.67596        -1.138932     -0.052423      0.332545
Au      9.76860      4.45674     10.93582         0.136438     -1.107021      0.086733
Au      9.45714      9.38500     13.25158         0.183136      0.284718     -0.785055
Au      7.65246      4.91432     12.64042        -0.570561     -0.815018      0.425277
Au      7.63220      9.44408     11.02940         0.560569      0.518518     -0.200527
Au      8.04964      7.12366     14.27504        -0.569795     -0.393301      0.709968
Au      6.25132      7.20464     12.03186        -0.965369     -0.107815      0.271622
Au      9.01312      7.05316     11.64870         0.475737      0.776112     -0.280135
Au      8.49980      9.43358     15.76378        -0.039750     -0.124444      1.059403
Au     10.45140      9.32654     10.56112         0.019241     -0.014105     -0.004804
Au     13.78390      7.30222     10.82778        -0.819644      0.416093     -0.245837
Au     14.88730      5.71674     12.75018         0.882105     -0.937984      0.598463
Au     12.36184      4.97052     11.88632        -0.196151     -1.230823      0.262452
Au     16.28124      7.88018     11.75306         1.392949     -0.144409      0.233030
Au     10.19564      5.43570     13.60712         0.123757     -0.999487      0.510778
Au     14.22204      8.27392     13.54848         0.079573      0.418740      1.020820
Au     10.62650      7.72956     15.16280         0.262043     -0.212399      1.274690
Au     11.62442      7.67020     12.58606        -0.003334      0.435444     -0.766358
Au     12.76974      6.07652     14.42968         0.053151     -0.351124      1.012464
Au      5.90422     14.01426     14.37494        -0.419201      0.703998      0.940191
Au      8.08988     11.80098     12.62834         0.170117     -0.506631     -0.865751
Au      3.66730     11.99924     10.68990        -1.255530     -0.617686     -0.170031
Au      4.88910      9.58658     11.34418        -0.616849     -0.521387      0.561719
Au      8.60416     13.99426     14.16478         0.233629      1.204565      0.495251
Au      4.19732     14.13142     12.24318        -1.017931      0.922870      0.577470
Au      5.27594     11.78062     13.00890        -0.786416     -0.973612      0.729753
Au      9.61858     14.07852     11.54532        -0.395116      1.102720     -0.199294
Au      9.92212     11.65580     14.87452         0.600027     -0.045399      0.739998
Au      7.16606     11.76218     15.19362        -0.658596     -0.178722      1.133020
Au      6.86636     14.24906     11.87112         0.651631      1.256698     -0.298579
Au     11.30922     13.79404     13.75390         0.465443      0.659062      0.697334
Au     12.37428     13.83572     11.18124         0.289299      0.943108      0.095399
Au     13.48082     12.15968     13.12084         0.762000      0.563313      0.915998
Au     13.07634      9.92366     11.54740        -0.625856     -0.530622     -0.319855
Au     12.07232      9.96592     14.21412         0.450021      0.157658      0.967299
Au     14.51820     12.14448     10.51490         1.037284      0.420808     -0.145195
Au     10.89990     11.62426     12.21944        -0.424511     -0.656024     -0.350670
Au     15.57192     10.42568     12.42510         0.674592      0.611523      0.567793
