75
# total energy = -211.52907175 eVAu      8.29770      8.92630      4.83231        -0.002725     -0.002028     -0.011506
Au      5.55183      8.26863      8.79649        -0.013324     -0.011022     -0.004938
Au      8.76464      7.61381      9.88584        -0.013751     -0.033182     -0.007305
Au      6.80315      5.75405      9.39700         0.002694     -0.010987     -0.001199
Au      7.39473      7.21046      6.98345        -0.010016     -0.001431      0.016234
Au      6.55546      9.96496      6.68755         0.002052     -0.012279      0.002323
Au     15.00513      8.55633      7.70717         0.014141     -0.002260     -0.009737
Au     11.03692      9.71989      5.26202         0.007761      0.003888      0.010478
Au     15.91685      6.71555      9.61506         0.015566     -0.001395     -0.004996
Au     13.34473      8.13208      9.97400        -0.020866     -0.001006      0.006094
Au     10.03060      7.03414      5.72087         0.012524      0.000872     -0.001933
Au     11.66912      4.33782      9.06713        -0.009544     -0.001236     -0.006754
Au     11.78632      5.08525      6.42899        -0.004202      0.000168     -0.012289
Au     13.90099      5.85614      7.98626         0.010986     -0.001499     -0.001459
Au     11.22535      7.26343      8.36869         0.005753     -0.006224      0.003903
Au     12.86993      7.72186      6.03917        -0.013012      0.006219     -0.009110
Au      9.31684      9.27680      7.56863        -0.003368      0.014092     -0.006002
Au      9.21048      5.27466      7.86682         0.012966      0.005139     -0.002378
Au      5.11344     13.86349      9.23167        -0.003975      0.000985      0.001481
Au      6.71912     12.75069      7.16513         0.013442      0.001572      0.014242
Au      4.82465     11.07512      8.47736        -0.017328     -0.007560     -0.001545
Au      7.51346     10.43851      9.42633        -0.005471     -0.000130     -0.019435
Au      7.32607     15.27497      8.25135         0.006033     -0.000705     -0.004311
Au      7.80414     13.24194     10.18277        -0.004527      0.009844     -0.002081
Au      8.78166     11.51709      5.64358         0.016386     -0.007844     -0.002361
Au     11.49946     12.34024      6.27229         0.002035     -0.006798     -0.002574
Au     12.39988     13.05944      8.89680         0.012222     -0.008956     -0.000521
Au     10.10454     14.82222      9.08046         0.008902      0.014063     -0.007213
Au      9.69275     12.00814      8.42612         0.007807      0.002258      0.000659
Au     14.54495     11.17058      8.79131        -0.025482     -0.007391      0.008674
Au     11.97455     10.06826      8.25775        -0.000064      0.001847      0.000849
Au     13.64146     10.48072      6.13766        -0.011376     -0.006353     -0.003400
Au      9.21547     14.07094      6.54911        -0.001467      0.003527     -0.012491
Au      7.25804      9.88100     14.66954        -0.005692     -0.005905      0.014263
Au      3.91500      9.48238     10.75132        -0.010627      0.007410      0.000026
Au      4.91085      6.91174     11.19573         0.014776      0.005090      0.006770
Au      6.78392      8.93184     11.66171        -0.008427     -0.000064      0.001756
Au      8.37303      7.23605     14.79614         0.005403     -0.009919      0.004471
Au      5.69547      7.65330     13.89380         0.008346     -0.001429     -0.014756
Au      7.43198      6.08031     12.25581         0.012417     -0.017487      0.000755
Au     10.20467      9.92177     10.39588         0.012981      0.037432     -0.013772
Au      9.14068      4.58347     10.57271        -0.019153      0.010079      0.003126
Au     14.20946      7.37292     14.76423         0.003153      0.006086      0.011908
Au     15.84132      9.34585     10.58251         0.015719      0.000130      0.001849
Au     13.93473      4.95053     10.67531         0.003868      0.008380     -0.002874
Au     12.88959      5.49005     13.26571        -0.003197      0.007759      0.011541
Au     12.45790      8.42760     12.61034         0.005462     -0.010148     -0.005211
Au     15.12892      7.01627     12.21128         0.009972     -0.002801     -0.001686
Au      9.94150      5.33890     13.32602        -0.019821      0.011815      0.004542
Au     14.96815      9.70180     13.25648        -0.006970      0.013410      0.009620
Au     12.79646      9.64486     15.23662         0.011829     -0.000426     -0.005411
Au     11.25494      6.47361     11.03603         0.011741      0.022961     -0.008190
Au     11.57391      3.65352     11.71765         0.006505     -0.010563      0.000009
Au      9.54760      8.35265     12.57842        -0.006876     -0.024956      0.029675
Au     11.26281      7.21181     14.92455         0.009690      0.001680     -0.006078
Au      9.88745      9.56330     15.55919        -0.018416     -0.008795     -0.004823
Au      6.41094     12.57436     13.93716        -0.010832     -0.005214      0.012719
Au      8.32036     11.20048     12.20222         0.005241      0.009642      0.018222
Au      3.10530     12.18648     10.32148        -0.014260      0.011939      0.005120
Au      5.89768     14.60312     11.92606        -0.004949      0.001250     -0.000517
Au      8.45810     14.39155     13.14549         0.006616     -0.007455     -0.019563
Au      3.86592     12.90546     12.93648        -0.017332      0.009734     -0.003206
Au      4.71286     10.23765     13.49994        -0.010033      0.006258      0.000703
Au      5.70652     11.68398     11.21977        -0.010036     -0.006294      0.003731
Au      8.08570     15.98998     10.85948         0.005973      0.002876      0.000745
Au     11.15273     13.75380     13.79691         0.015976     -0.007996     -0.004034
Au     13.04614     13.79853     11.59008         0.004172     -0.004416      0.004400
Au     11.50001     11.94973     15.85305         0.006339      0.002957      0.012544
Au     12.76899     10.81694     10.98858        -0.000099      0.000664     -0.002393
Au     10.71861     15.48838     11.71554         0.005133      0.007492      0.009640
Au     10.95174     10.81993     13.19418        -0.002300      0.019948     -0.001960
Au     15.19911     11.95022     11.49321        -0.006912     -0.002371      0.012232
Au      8.93985     12.21585     14.89025        -0.000466     -0.011727      0.002131
Au     10.46881     12.73934     11.09150         0.004969      0.000786     -0.003756
Au     13.51705     12.05957     13.79352        -0.000660     -0.002001     -0.013667
