75
# total energy = -211.53020074 eVAu      8.29274      8.91820      4.83771         0.005509     -0.002562      0.003569
Au      5.53245      8.26428      8.79733        -0.003796     -0.001955     -0.009360
Au      8.77803      7.60086      9.88782         0.006676      0.007187      0.000613
Au      6.80468      5.75224      9.40198        -0.013427      0.004350     -0.002806
Au      7.39102      7.20697      6.99645        -0.003456     -0.000428     -0.002482
Au      6.54641      9.95418      6.69033        -0.013310     -0.000024     -0.000502
Au     15.02442      8.54616      7.69423         0.000385     -0.007336     -0.001057
Au     11.03823      9.71424      5.27181        -0.003589      0.002284      0.002260
Au     15.93016      6.71470      9.61159         0.004648     -0.002647     -0.001110
Au     13.36033      8.14113      9.96667        -0.012840      0.008570      0.002203
Au     10.03752      7.03426      5.72468        -0.007039      0.008765      0.002785
Au     11.67183      4.33877      9.06150         0.006056      0.003830      0.004968
Au     11.79699      5.08293      6.42183        -0.000942      0.001054     -0.007683
Au     13.91191      5.85441      7.98202         0.004161     -0.003065     -0.004342
Au     11.23748      7.26370      8.36525         0.004627      0.008065     -0.003918
Au     12.87880      7.71764      6.03347        -0.009590      0.000986     -0.002632
Au      9.30760      9.27670      7.57759         0.001026     -0.001100     -0.002594
Au      9.21945      5.28010      7.86653         0.002286     -0.003253     -0.000467
Au      5.11098     13.86546      9.22743        -0.001487      0.004236      0.004550
Au      6.73624     12.73378      7.19059         0.005144      0.004195     -0.001785
Au      4.80176     11.07157      8.47443        -0.000183     -0.009157     -0.001017
Au      7.48854     10.45623      9.41203        -0.002908      0.001078     -0.003167
Au      7.33476     15.27426      8.24709        -0.001547      0.000267     -0.000636
Au      7.79350     13.25002     10.18378         0.000201     -0.000392     -0.000108
Au      8.78900     11.50738      5.64711         0.005222      0.003668      0.000935
Au     11.50379     12.33967      6.27097        -0.004851     -0.007328      0.006782
Au     12.40743     13.04628      8.89891        -0.006625      0.004068     -0.000222
Au     10.11964     14.83176      9.07348        -0.002890     -0.001686      0.001378
Au      9.68723     12.02423      8.42352         0.005899     -0.007884     -0.008045
Au     14.53398     11.14038      8.80268        -0.002313     -0.002124      0.000146
Au     11.95416     10.06919      8.26873         0.002417      0.000541      0.002053
Au     13.63681     10.47276      6.15011        -0.009236     -0.004671     -0.001243
Au      9.21827     14.07288      6.53705         0.008803     -0.002116      0.004456
Au      7.24217      9.87799     14.67882         0.002154      0.003762      0.010059
Au      3.89952      9.49017     10.75433         0.009685     -0.000792     -0.000358
Au      4.92098      6.92565     11.20274        -0.004275      0.003272     -0.011003
Au      6.80211      8.94349     11.65236        -0.003353     -0.004628      0.001872
Au      8.37172      7.23067     14.79323        -0.010389      0.007866      0.006490
Au      5.69888      7.65917     13.87670         0.000896      0.008671      0.009130
Au      7.43160      6.07348     12.25718         0.007547     -0.008154     -0.000527
Au     10.15893      9.95448     10.40019         0.006087     -0.000260     -0.000633
Au      9.14731      4.59113     10.57321        -0.002272      0.003666      0.001006
Au     14.22429      7.37325     14.76668         0.002128      0.005398      0.004485
Au     15.86464      9.34032     10.58821         0.004087     -0.004637      0.003909
Au     13.93877      4.96170     10.67174        -0.000059     -0.009578      0.003408
Au     12.89450      5.49536     13.26910         0.002310     -0.000885     -0.008438
Au     12.46984      8.42783     12.60685         0.005479      0.007396     -0.002375
Au     15.14082      7.01612     12.21052         0.006305     -0.002126      0.002854
Au      9.94556      5.34512     13.31975        -0.003217      0.002732     -0.000976
Au     14.97896      9.70065     13.25887        -0.007013      0.004538      0.005811
Au     12.80023      9.64174     15.23009        -0.007650      0.007969     -0.001229
Au     11.27578      6.47723     11.02952         0.003697      0.001133     -0.000860
Au     11.58222      3.65652     11.71526         0.007914      0.002685     -0.002390
Au      9.55878      8.33968     12.57776         0.004591      0.005097     -0.007631
Au     11.26948      7.21516     14.91949         0.003265     -0.002646      0.000463
Au      9.87785      9.55453     15.55375        -0.002570     -0.000454      0.003622
Au      6.39394     12.57440     13.95032        -0.000080     -0.008162      0.006211
Au      8.30340     11.22562     12.21622        -0.000459      0.002329      0.003227
Au      3.09286     12.20275     10.31909        -0.001469     -0.002728      0.000400
Au      5.89707     14.60704     11.92860        -0.005218      0.002523     -0.005293
Au      8.46244     14.36172     13.12511         0.005629      0.003710     -0.003200
Au      3.85443     12.92158     12.93505        -0.001083     -0.002970      0.001141
Au      4.69745     10.24336     13.49989         0.008459     -0.001954     -0.004957
Au      5.68824     11.68850     11.22265         0.015158     -0.010308     -0.002213
Au      8.09483     15.99123     10.85883        -0.001095      0.000563      0.000747
Au     11.15863     13.74271     13.79565         0.002502      0.002673     -0.006327
Au     13.05078     13.79851     11.58897        -0.006800     -0.007965      0.002104
Au     11.49421     11.94004     15.85605         0.005240     -0.005081     -0.003450
Au     12.74627     10.81511     10.99041         0.000187      0.000388     -0.002695
Au     10.72709     15.49534     11.72206         0.004401     -0.005053     -0.005711
Au     10.93978     10.81749     13.19213         0.001300      0.001871      0.001264
Au     15.19010     11.93860     11.49006        -0.007379     -0.002770      0.008926
Au      8.93244     12.20597     14.89735        -0.014260      0.001906      0.005964
Au     10.46262     12.75592     11.08919         0.010325     -0.004403      0.007283
Au     13.51349     12.05072     13.78829        -0.003735     -0.000009     -0.001635
