75
# total energy = -211.53000298 eVAu      8.29746      8.92412      4.83165        -0.003473     -0.000953      0.002549
Au      5.54961      8.26831      8.79802        -0.018317     -0.009248     -0.001716
Au      8.76736      7.60990      9.88508         0.009356     -0.001668      0.007191
Au      6.80223      5.75510      9.39912         0.001180     -0.016873     -0.004683
Au      7.39355      7.20956      6.98695        -0.001301     -0.005219      0.007426
Au      6.55387      9.96167      6.68991         0.004652     -0.003389     -0.010521
Au     15.01032      8.55311      7.70376         0.009029      0.002752     -0.004363
Au     11.03938      9.71737      5.26654        -0.005721     -0.000788      0.000293
Au     15.92200      6.71464      9.61381         0.008473      0.002132     -0.003423
Au     13.34663      8.13529      9.97247         0.004669     -0.000640     -0.002602
Au     10.03282      7.03390      5.72165         0.004129      0.005803     -0.000897
Au     11.66943      4.33691      9.06542        -0.004746     -0.000179      0.007905
Au     11.78782      5.08375      6.42767         0.004751      0.000536     -0.011400
Au     13.90309      5.85700      7.98663         0.007276     -0.006818     -0.007885
Au     11.23011      7.26336      8.36785        -0.009050     -0.001109     -0.001750
Au     12.87232      7.72057      6.03843        -0.006776      0.004739     -0.009196
Au      9.31362      9.27662      7.57012         0.005559      0.005757      0.000509
Au      9.21378      5.27601      7.86666         0.002333      0.006315     -0.002772
Au      5.11252     13.86426      9.23186        -0.003937     -0.002851     -0.003400
Au      6.72284     12.74896      7.16967         0.008568     -0.012873      0.013668
Au      4.81910     11.07321      8.47704        -0.015567      0.005414     -0.000513
Au      7.50758     10.44409      9.42257        -0.003433     -0.004379     -0.006198
Au      7.32834     15.27465      8.24977         0.004828      0.003758      0.002727
Au      7.80057     13.24440     10.18302         0.001170      0.006608     -0.001884
Au      8.78465     11.51384      5.64480         0.004916     -0.003421     -0.000233
Au     11.49750     12.33848      6.27109         0.007538      0.007189      0.000836
Au     12.40156     13.05628      8.89723         0.008045     -0.004575     -0.000246
Au     10.10880     14.82286      9.07895         0.005119      0.012385     -0.003462
Au      9.69163     12.01086      8.42535         0.001503      0.013183     -0.003661
Au     14.54252     11.16444      8.79353        -0.009024     -0.010329      0.005178
Au     11.97111     10.06868      8.26101        -0.015234     -0.004378      0.000674
Au     13.63844     10.48204      6.14352         0.007434     -0.013241     -0.013101
Au      9.21615     14.07246      6.54599         0.001091     -0.005072     -0.008824
Au      7.25570      9.88020     14.66905        -0.014148     -0.006633      0.014535
Au      3.91128      9.48534     10.75175        -0.009223     -0.000420      0.001018
Au      4.91205      6.91439     11.19754         0.015136      0.006958      0.008418
Au      6.78619      8.93436     11.66024         0.006467      0.002394     -0.003402
Au      8.37120      7.23599     14.79456         0.004463     -0.014218      0.013187
Au      5.69533      7.65434     13.89040         0.007615     -0.000743     -0.016171
Au      7.43504      6.07703     12.25580        -0.007650     -0.001430      0.001133
Au     10.19556      9.93359     10.39549        -0.019738     -0.006907      0.007695
Au      9.14122      4.58451     10.57133         0.002132      0.008153      0.009193
Au     14.21173      7.37197     14.76547         0.011570      0.005686      0.007232
Au     15.84753      9.34387     10.58406         0.008872      0.003727     -0.001714
Au     13.93506      4.95459     10.67430        -0.000355     -0.000462      0.000527
Au     12.89090      5.49071     13.26743        -0.008829     -0.002879     -0.003253
Au     12.46252      8.42725     12.60834        -0.007002      0.000831      0.007337
Au     15.13036      7.01680     12.20979         0.011229     -0.003441      0.006323
Au      9.94250      5.34071     13.32651        -0.003580      0.001988     -0.011241
Au     14.97070      9.70103     13.25660        -0.002110      0.010549      0.008261
Au     12.79802      9.64373     15.23490         0.002110      0.005620     -0.004645
Au     11.26099      6.47476     11.03411        -0.003099      0.000460      0.001113
Au     11.57670      3.65095     11.71754         0.001045      0.015501     -0.003653
Au      9.55024      8.34909     12.57969         0.005071     -0.003609     -0.009023
Au     11.26542      7.21253     14.92275         0.001800      0.006138     -0.001443
Au      9.88451      9.56083     15.55801        -0.003714     -0.007472     -0.002784
Au      6.40690     12.57350     13.94073        -0.017156      0.005159      0.003741
Au      8.31633     11.20788     12.20523         0.000375     -0.001190      0.008018
Au      3.10075     12.19161     10.32141        -0.002384      0.004686      0.000695
Au      5.89662     14.60377     11.92584        -0.001137     -0.000106      0.005281
Au      8.45970     14.38727     13.14090         0.001497     -0.017820     -0.009876
Au      3.86120     12.91044     12.93628        -0.001455      0.003472     -0.002979
Au      4.70905     10.24005     13.49983        -0.007898      0.000882      0.002233
Au      5.70181     11.68369     11.22096        -0.010604      0.005323      0.001905
Au      8.08835     15.99047     10.85974         0.001585      0.002033     -0.005630
Au     11.15527     13.74995     13.79596         0.003461     -0.003160      0.000806
Au     13.04539     13.79804     11.59274         0.005869      0.004949     -0.008356
Au     11.50073     11.94789     15.85478        -0.004351     -0.001962      0.001147
Au     12.76458     10.81612     10.98778        -0.011710     -0.001687      0.008691
Au     10.72079     15.49079     11.71700         0.005238     -0.000306      0.006932
Au     10.94825     10.82015     13.19474         0.004085      0.003472     -0.006451
Au     15.19353     11.94910     11.49014         0.014708     -0.006327      0.011286
Au      8.93756     12.21194     14.89052         0.012473      0.000734      0.008957
Au     10.46775     12.74219     11.09144        -0.000132      0.013907     -0.003853
Au     13.51710     12.05523     13.79025        -0.005566     -0.000413      0.002580
