75
# total energy = -211.17007397 eVAu     14.97676     16.98206      9.19647         0.011237     -0.003991     -0.000882
Au     16.05431     15.05865     14.39492        -0.032310     -0.019056      0.034405
Au     11.57835     19.02313     12.06694         0.031059      0.007197     -0.027359
Au     21.11186     12.38931     11.74177         0.009979     -0.012208      0.022466
Au     17.41378     15.63560      9.60950         0.024229      0.028135      0.009355
Au     17.00548     18.29950     10.64634         0.041236     -0.012404     -0.042290
Au     22.04915     13.04094     14.32467         0.015306     -0.051893     -0.022192
Au     13.47699     14.73530     10.09812        -0.019677      0.018484      0.024423
Au     15.11811     10.04942     14.31523         0.021235      0.007260     -0.021870
Au     19.27911     12.75944     13.88599         0.035016     -0.011584      0.022450
Au     12.29053     17.33474      9.96168        -0.025602      0.018150      0.001494
Au     18.99935     19.43824     12.28141         0.026839     -0.006511     -0.011484
Au     15.89874     13.33567     10.43716        -0.002943      0.011967      0.003675
Au     16.93432      9.90346     12.18635        -0.036990      0.013701      0.010911
Au     11.03549     13.95460     13.67078        -0.002092     -0.000367      0.032551
Au     18.34786     12.03036     10.96637         0.019687     -0.014197      0.008488
Au      9.95748     16.58207     13.44840        -0.019094      0.011444      0.004833
Au      9.96242     19.67370     14.12362        -0.057088     -0.015540     -0.026131
Au     13.98897     13.86028     12.80852         0.043657      0.025638      0.023884
Au     12.56731     11.48126     13.81249         0.007150     -0.041773     -0.040131
Au     19.64162     10.17714     12.76991         0.015183      0.011607      0.005993
Au     12.70825     16.44743     12.63569         0.044174      0.025825      0.047420
Au     16.53455     12.42889     13.25806        -0.015568      0.037582      0.035746
Au     16.32503     19.90991     12.98779        -0.021852      0.023956     -0.003415
Au     19.84210     14.31442     10.20551        -0.029497      0.041021      0.004373
Au     13.61644     20.22046     13.71952         0.043303      0.015956     -0.067243
Au     12.03632     12.61748     11.28762         0.003442     -0.014633      0.014698
Au     15.43915     16.06491     11.77226        -0.003622     -0.027313      0.035222
Au     10.75596     15.15692     11.13070        -0.034153      0.006454     -0.034635
Au     17.52343     17.28000     13.31690        -0.017090     -0.012604      0.039309
Au     21.20195     15.12447     12.64417        -0.056542      0.002387      0.003285
Au     14.46358     11.18779     11.66655        -0.016763     -0.006149      0.033290
Au     14.76677     17.65676     14.16964         0.021252     -0.028519     -0.036765
Au     20.47088     17.57793     13.84857         0.019689     -0.026342     -0.013710
Au     17.97322     14.64656     12.24510        -0.010988      0.013441      0.030947
Au     19.55988     16.92115     11.17892        -0.003999     -0.024873     -0.001810
Au     14.27682     18.88323     11.26791        -0.016185      0.025132      0.033975
Au     12.34909     19.55831     18.94141         0.030169      0.004480     -0.047071
Au     12.48592     14.87763     18.16624        -0.004568     -0.020686     -0.006310
Au     17.75606     19.20658     17.77978        -0.002217     -0.016198     -0.020748
Au     14.03461     17.50791     16.90187        -0.020772      0.025060      0.066858
Au      9.19519     17.62414     15.89848        -0.037673     -0.012236     -0.007226
Au     18.46970     19.41186     15.02816        -0.005751      0.010848      0.038950
Au     19.06915     17.24888     19.33019        -0.035116      0.000582      0.005604
Au     19.48394     13.22217     19.27794         0.048295      0.002189     -0.008066
Au     21.64209     15.56985     15.47461        -0.003202     -0.019972      0.000873
Au     20.54625     10.72949     15.37257         0.039349     -0.015378     -0.043897
Au     18.77465     11.13117     17.52090         0.019404      0.011804     -0.009258
Au     18.89299     15.32183     14.94511        -0.002272     -0.004393     -0.022898
Au     18.22184     15.15678     17.65462        -0.060120      0.026315     -0.031479
Au     20.63936     13.17582     16.73041         0.088578     -0.031034      0.053598
Au     16.02953     10.67613     17.01002         0.021173     -0.017962     -0.023156
Au     20.97601     15.53147     18.21276         0.014986     -0.042104      0.008562
Au     10.45991     15.24428     16.12776        -0.010764     -0.012052      0.004971
Au     17.58708     14.95061     20.38356        -0.011902      0.025328      0.007941
Au     15.07771     19.61844     18.47699        -0.022336      0.018281      0.001716
Au     10.55266     19.84535     16.85171        -0.003052      0.025347      0.027127
Au     11.05300     17.26517     18.00576        -0.014937     -0.044772     -0.023279
Au     17.43212     13.06206     15.98490        -0.029826     -0.007318     -0.035303
Au     17.86544      9.98219     14.98696        -0.020963      0.052904     -0.026298
Au     15.82697     20.03308     15.75800         0.080319     -0.010487     -0.039478
Au     15.39586     14.93852     17.16331         0.012276     -0.023179     -0.001210
Au     16.22346     17.16266     19.23168         0.011952     -0.006932     -0.000839
Au     13.42336     17.10102     19.62602        -0.006632     -0.014814      0.010980
Au     12.03365     18.06488     14.98101        -0.021138     -0.000792     -0.037146
Au     13.28359     10.48905     16.37630         0.002862     -0.020229      0.008515
Au     13.19201     15.38950     15.24505         0.023965     -0.012034     -0.021872
Au     14.02428     12.49902     18.20346         0.001022      0.018329      0.034884
Au     16.73497     12.66093     18.93513        -0.027559      0.028475     -0.042141
Au     11.87126     12.88820     16.22465        -0.015124      0.007541      0.035175
Au     14.62199     12.78124     15.38233         0.027712      0.065875      0.004769
Au     14.82895     14.67347     19.86110         0.003792     -0.012122     -0.025851
Au     16.85833     17.16313     16.14812         0.026431     -0.008409      0.011672
Au     19.94403     17.63463     16.65253        -0.057787      0.004773     -0.029311
Au     13.20567     20.43658     16.41407        -0.050192      0.009595      0.047365
