75
# total energy = -211.22348236 eVAu      7.93798     10.09143      4.26570         0.052523      0.085894      0.068990
Au      5.16508      8.30493      8.29289         0.006334     -0.031663      0.056582
Au      7.64215      9.28698      8.97778        -0.015412      0.030606      0.000432
Au      7.27318      6.43167      8.08327        -0.015918     -0.019894      0.003921
Au      8.56874      8.38800      6.40737        -0.082388      0.017763     -0.060568
Au      6.49106     10.50949      6.66639         0.004046     -0.065501     -0.053213
Au     13.98500      6.63151      6.01992        -0.024970      0.003970      0.000516
Au     12.66176      8.86495      4.94955        -0.010540      0.024393     -0.050208
Au     15.70345      6.99008      8.27241         0.006609      0.014798      0.028309
Au     12.83204      7.33998      8.48048        -0.084985      0.065012      0.062434
Au     10.07177      8.36521      4.02399         0.015636      0.040748     -0.001070
Au     12.44171      4.71191      7.50461        -0.032221      0.012626     -0.008297
Au     13.08522      9.86095      9.63000         0.022722     -0.010058     -0.016509
Au     11.02754      6.76448      6.10420         0.026158      0.003514     -0.025472
Au     14.19447      5.12178      9.68655        -0.012101     -0.026979      0.035569
Au      9.95131      7.45717      8.72269         0.052608     -0.020892      0.085430
Au     14.55934      9.28225      7.01753         0.033345      0.000270     -0.008262
Au     15.89456      9.45747      9.55427        -0.035535      0.067032      0.015378
Au      9.63480      4.87732      7.77685        -0.002439     -0.025423      0.009424
Au     11.25148      9.51380      7.29342         0.067359      0.005037     -0.038646
Au      4.04030     13.68414      8.56221         0.134252     -0.119054     -0.040591
Au      6.07918     13.35302      6.69400        -0.098512      0.098820      0.102709
Au      8.25637     12.68096      5.22491         0.138015     -0.076098     -0.104152
Au      4.26566     10.89887      8.48580        -0.028526      0.074439      0.066091
Au      6.38978     15.05537      8.97238         0.065613     -0.049293     -0.048130
Au      6.73823     12.10046      9.17033        -0.042706      0.013907      0.030557
Au      8.61403     14.51506      7.39554         0.011827      0.040164      0.027090
Au     10.57934     11.00342      4.73629        -0.066185      0.030355     -0.000070
Au     13.54051     13.89051      9.95924        -0.053819      0.024087     -0.076717
Au     10.85959     13.46882      6.02759         0.004511      0.013261      0.030839
Au     13.41907     14.01075      7.15300        -0.107620     -0.100984      0.047050
Au     11.14629     14.96984      8.53986         0.003830     -0.041064      0.005372
Au      9.06763     11.37140      7.54927        -0.006668     -0.042523     -0.030197
Au     11.67579     12.13574      8.42840         0.048318      0.052221     -0.049548
Au     14.73593     11.77770      8.28781        -0.032445      0.022176     -0.034493
Au     13.06427     11.48261      5.92909         0.011733      0.017167      0.053925
Au      6.54968      8.62795     13.06571         0.046496     -0.120437     -0.043839
Au      8.58294      5.26992     10.34735        -0.039495     -0.025829      0.051670
Au      5.09296      9.66172     10.86568        -0.016573     -0.022970      0.006627
Au      7.53352      5.99491     12.86308         0.012873      0.100168     -0.066232
Au      9.12647      7.87686     14.26506        -0.057804     -0.076552     -0.058314
Au      6.16691      7.02889     10.60544        -0.030973     -0.002943      0.024270
Au      8.78297      8.01150     11.29381         0.032142      0.080309      0.054551
Au     10.22220     10.10073      9.87755        -0.040243     -0.039776      0.034897
Au     14.77509      7.48536     13.67320        -0.048273      0.058710     -0.003085
Au     15.66675      7.02935     11.08206        -0.045675     -0.008897     -0.022369
Au     13.22735      5.74203     12.19794        -0.025955      0.032217     -0.003375
Au     13.32706      9.69566     12.42706         0.078804     -0.025855      0.085303
Au     16.22005      9.48140     12.31361        -0.052732      0.012242     -0.036191
Au     10.34744      5.77398     12.59220        -0.021359     -0.027154     -0.034107
Au     13.57460      9.49782     15.25895         0.026628      0.036735     -0.013773
Au     11.70328      7.82875     11.03613         0.022651     -0.008790     -0.085662
Au     11.40895      5.00041     10.10110         0.032327     -0.048781      0.029755
Au     10.47720      9.92439     12.69782         0.004802      0.021574     -0.024018
Au     11.94411      7.58576     14.03946         0.031056     -0.051217      0.014369
Au     10.78700      9.85573     15.45545         0.022375      0.013213      0.041932
Au      7.34684     13.32258     14.38509         0.028164     -0.009984     -0.023459
Au      8.93951     15.36693     12.89266         0.030529     -0.032591     -0.006668
Au      4.91166     13.92845     13.21220         0.003990     -0.050858      0.063020
Au      8.85523     15.64449     10.07057         0.028700     -0.025627     -0.003693
Au      5.69185     11.24556     13.17446        -0.047914      0.080853      0.027715
Au      8.12604     10.52077     14.49295        -0.030973      0.020607     -0.017656
Au      4.38402     12.39142     10.97064         0.006605     -0.053212     -0.086026
Au      7.88314     10.78838     11.43223         0.046986     -0.002679     -0.026149
Au      7.04095     13.78218     11.47074         0.017223      0.024031     -0.010221
Au     11.30327     14.48842     14.18359        -0.016493     -0.082455      0.012146
Au      9.59621     12.62424     12.79321         0.001003      0.010575      0.014728
Au     12.50025     12.08216     14.97700         0.024283      0.021948      0.035280
Au     14.99662     11.75572     11.09870         0.045441     -0.052190      0.019659
Au     15.02579     11.51064     13.90455        -0.033839      0.001663     -0.008691
Au     11.31205     14.87873     11.40050        -0.034602      0.020307     -0.052840
Au      9.77963     12.50249     15.57555         0.039748      0.066650     -0.042150
Au      9.36266     12.87685      9.99652         0.014176      0.014154     -0.011559
Au     11.89909     11.92426     11.30065        -0.011840     -0.001434      0.023819
Au     13.56468     13.63000     12.77222         0.005290      0.025442      0.055862
