75
# total energy = -211.28514155 eVAu      8.27794      8.96341      4.74218         0.021025     -0.000131      0.034420
Au      5.59803      8.22063      8.84354        -0.035165      0.023499     -0.035708
Au      8.63640      7.63103      9.82781        -0.034244     -0.004903      0.069465
Au      6.74267      5.67425      9.36377         0.076754      0.079514      0.018962
Au      7.37606      7.20137      6.93541         0.032333      0.007239      0.043270
Au      6.59099      9.92040      6.69613         0.015756      0.020378      0.029395
Au     14.92268      8.65889      7.72796        -0.002670     -0.042974     -0.001076
Au     11.05776      9.76815      5.15200        -0.028047     -0.022306      0.033623
Au     15.83256      6.80980      9.61302         0.060978     -0.039740     -0.006226
Au     13.23497      8.10239     10.01393         0.058785      0.035666     -0.028531
Au      9.99430      7.06726      5.65987         0.007523      0.018633      0.025553
Au     11.56780      4.38822      9.06090         0.031750     -0.029537     -0.011961
Au     11.72109      5.12443      6.41809         0.014683     -0.013807     -0.019257
Au     13.81733      5.95122      7.96795         0.033571     -0.036447     -0.007804
Au     11.14171      7.25450      8.35595        -0.020824      0.039462     -0.011246
Au     12.81967      7.79336      6.01150         0.001456     -0.040222      0.021411
Au      9.34469      9.27691      7.49033         0.019619      0.017376      0.061370
Au      9.13465      5.23544      7.79811         0.022954      0.040954      0.023176
Au      5.15313     13.80033      9.24025         0.001327      0.034782     -0.021730
Au      6.87969     12.65051      7.31793        -0.073603      0.032536     -0.079587
Au      4.86748     10.98228      8.52225         0.003374      0.016636     -0.020881
Au      7.60973     10.40908      9.44784         0.018424     -0.065542      0.004362
Au      7.38236     15.25038      8.24046        -0.058889      0.012465      0.002166
Au      7.86340     13.21217     10.17401         0.020704      0.002032     -0.005431
Au      8.84261     11.51271      5.62039        -0.017942     -0.007070      0.017572
Au     11.55138     12.37826      6.21589        -0.042902     -0.029448      0.076402
Au     12.45070     13.11093      8.86776        -0.070267     -0.031539      0.028331
Au     10.14106     14.80800      9.07361         0.015606     -0.033861      0.004230
Au      9.78730     11.94115      8.43336         0.040479      0.033595      0.018072
Au     14.60528     11.30955      8.73513        -0.122738     -0.059296      0.052411
Au     12.04840     10.06190      8.20869        -0.010631      0.030863      0.013140
Au     13.66936     10.55729      6.07751        -0.037365     -0.029784      0.041363
Au      9.29275     14.05820      6.55067        -0.022407     -0.009860     -0.011640
Au      7.28202      9.80949     14.63502        -0.017369      0.041656      0.032836
Au      3.89048      9.41926     10.78289         0.020058     -0.001853     -0.036571
Au      4.88721      6.83831     11.21643         0.051874      0.035812     -0.022372
Au      6.70334      8.92793     11.68644         0.117572     -0.019313     -0.030343
Au      8.34927      7.19006     14.88867         0.044212      0.049267     -0.090043
Au      5.67497      7.58198     13.92628         0.051635      0.033719     -0.026252
Au      7.43051      6.07520     12.25756        -0.002734      0.010753     -0.002993
Au     10.40006      9.68507     10.40377        -0.027431      0.090041     -0.016149
Au      9.04980      4.54211     10.53129         0.032169      0.052038      0.013645
Au     14.15494      7.42040     14.78608         0.025428     -0.006147      0.012505
Au     15.74638      9.43616     10.55991         0.003852     -0.036833      0.020837
Au     13.76825      5.13194     10.67356         0.079403     -0.083539      0.000691
Au     12.80023      5.55030     13.29737         0.036923     -0.024235      0.006557
Au     12.39481      8.43709     12.66524        -0.016945      0.043260     -0.001085
Au     15.05448      7.11853     12.22116         0.037173     -0.032089      0.006959
Au      9.89025      5.33542     13.42161         0.013289      0.034894     -0.050341
Au     14.92971      9.78427     13.26713        -0.004236     -0.045060      0.004598
Au     12.79222      9.70679     15.28217        -0.008493      0.003700     -0.030785
Au     11.05737      6.54315     11.07482        -0.013046     -0.038116      0.014572
Au     11.47575      3.74240     11.72174         0.014429     -0.057686      0.011541
Au      9.46508      8.41288     12.67716        -0.062286     -0.030891     -0.031438
Au     11.23816      7.22003     15.03079         0.001591      0.020710     -0.047327
Au      9.89785      9.58063     15.60790         0.004446     -0.019258     -0.050679
Au      6.43920     12.46538     13.92719         0.010018      0.024035      0.005760
Au      8.39624     11.15123     12.15293         0.023863     -0.061856      0.019179
Au      3.14180     12.13005     10.33611        -0.060561      0.022742     -0.043144
Au      5.93540     14.53877     11.93087         0.007635      0.041085     -0.001726
Au      8.53246     14.20970     13.00131        -0.026944      0.077676      0.080047
Au      3.89791     12.84333     12.93587        -0.032769      0.049216      0.050148
Au      4.68569     10.16992     13.51959         0.035614      0.014953      0.017270
Au      5.74531     11.63607     11.22197         0.008114     -0.019212      0.003260
Au      8.14161     15.96668     10.85095        -0.053703      0.018446      0.020509
Au     11.21714     13.75256     13.78541        -0.023593     -0.011527     -0.000924
Au     13.11293     13.85164     11.58590        -0.071604     -0.055821     -0.018609
Au     11.52528     12.02728     15.91093        -0.000451     -0.019376     -0.035066
Au     12.85734     10.82478     10.98907        -0.019908      0.021896     -0.019670
Au     10.78450     15.46538     11.68157        -0.011838      0.000166      0.023707
Au     11.01577     10.85357     13.23657        -0.016071     -0.015641     -0.062359
Au     15.24250     12.04156     11.48559        -0.048488     -0.041600      0.002811
Au      8.97295     12.16770     14.88832        -0.004444      0.002108     -0.038149
Au     10.55446     12.66468     11.07089         0.021622      0.014686     -0.049559
Au     13.58358     12.15125     13.83881        -0.037418     -0.031971      0.000534
