75
# total energy = -211.42683422 eVAu     14.97196     17.01727      9.25124        -0.016733     -0.001488      0.003059
Au     16.01801     15.10763     14.44894        -0.033907     -0.047136      0.032648
Au     11.67568     19.19146     12.09250        -0.002454      0.030340     -0.014131
Au     21.12502     12.35491     11.71809         0.010118      0.021568      0.006726
Au     17.40983     15.66490      9.64085        -0.013042     -0.009825      0.010387
Au     17.04789     18.31804     10.65079         0.016490     -0.000391      0.014968
Au     22.10609     12.94939     14.33352         0.018865     -0.019351     -0.026876
Au     13.44202     14.79211     10.20244        -0.000190      0.020842     -0.004854
Au     15.14961     10.10643     14.32324        -0.008723     -0.002168     -0.007769
Au     19.31176     12.74950     13.89537        -0.041834      0.028943      0.001804
Au     12.27364     17.40747     10.02943         0.015410      0.014593      0.004744
Au     19.08272     19.38992     12.31746         0.005658     -0.011923      0.005655
Au     15.87984     13.37708     10.49528         0.009757      0.000221     -0.013861
Au     16.91881      9.95271     12.16815        -0.002073      0.000365      0.005243
Au     10.95725     13.91080     13.70495         0.011937     -0.013287      0.007807
Au     18.35159     12.03396     10.96360        -0.033493      0.026373     -0.008476
Au      9.90518     16.51970     13.51856        -0.025392     -0.077395      0.026067
Au      9.68732     19.36518     13.95972        -0.015038     -0.005752     -0.021840
Au     13.93967     13.90550     12.87766         0.008186     -0.013851     -0.006489
Au     12.54724     11.45751     13.85005         0.005049      0.000287     -0.010386
Au     19.65274     10.17437     12.72300         0.003654     -0.014454      0.027322
Au     12.68052     16.50793     12.66475        -0.002411     -0.000623      0.020206
Au     16.50661     12.48453     13.26445        -0.005298      0.007207      0.037671
Au     16.42891     19.99147     12.92408         0.001658      0.000007      0.010067
Au     19.82134     14.29568     10.20616        -0.012030      0.005421      0.012214
Au     13.75984     20.34315     13.64415         0.018509      0.034536      0.005841
Au     11.98575     12.63748     11.35682         0.000123      0.003205      0.000218
Au     15.42537     16.10394     11.82975        -0.004023      0.002947     -0.037332
Au     10.72666     15.20113     11.17421         0.012656     -0.005226      0.020984
Au     17.49668     17.31426     13.35738         0.027526      0.051088     -0.020847
Au     21.11820     15.02162     12.70590         0.011302      0.007296     -0.009728
Au     14.42586     11.21943     11.71226        -0.021867      0.028274     -0.000022
Au     14.75725     17.70890     14.17816         0.008684     -0.012940      0.010516
Au     20.49281     17.49160     13.87717        -0.009449      0.008921      0.004135
Au     17.95606     14.66237     12.27267         0.015281     -0.003761      0.016055
Au     19.56311     16.88134     11.20507        -0.007018      0.002128      0.003489
Au     14.33116     18.99471     11.22327        -0.008246     -0.003937     -0.005837
Au     12.37061     19.46011     18.76676         0.003020      0.002143     -0.006546
Au     12.42144     14.79850     18.17847         0.010476     -0.011291     -0.020781
Au     17.78484     19.22595     17.77165         0.028133     -0.024125      0.007460
Au     13.91146     17.57164     16.89837         0.009631      0.007740     -0.000193
Au      9.08015     17.53099     15.97723        -0.032165      0.000689     -0.011933
Au     18.52703     19.42245     15.04877         0.013917     -0.019743     -0.021220
Au     19.03425     17.20108     19.29122         0.007542     -0.007865     -0.014029
Au     19.55594     13.22938     19.20806         0.010075      0.022469      0.031799
Au     21.62699     15.40927     15.50945         0.008310      0.034069     -0.026009
Au     20.65082     10.71421     15.31740         0.013682     -0.026158     -0.021693
Au     18.91853     11.21259     17.43018        -0.037110     -0.019149      0.011313
Au     18.87032     15.30925     14.94409        -0.004186      0.003301     -0.006149
Au     18.13697     15.14880     17.61685         0.007724      0.011210      0.020577
Au     21.22809     12.91537     16.99094        -0.046464      0.025974      0.010111
Au     16.10362     10.70264     16.98903        -0.000716     -0.000819     -0.002131
Au     20.95129     15.43224     18.17506        -0.006112      0.006758      0.040048
Au     10.34772     15.14214     16.15873         0.029149     -0.036015      0.001562
Au     17.60332     14.94802     20.35265         0.010608     -0.006134     -0.008091
Au     15.11124     19.66958     18.38202        -0.022619     -0.024496     -0.031670
Au     10.55379     19.78103     16.67752        -0.026779      0.006731     -0.015892
Au     10.98973     17.18875     17.97440         0.023736     -0.030595      0.026019
Au     17.40903     13.06542     15.94534        -0.035632      0.004591     -0.010066
Au     17.91873     10.12432     14.93936        -0.009960     -0.014646      0.008954
Au     15.89619     20.12308     15.69343        -0.023210     -0.008918     -0.006716
Au     15.28622     15.00750     17.17797         0.016071     -0.014852     -0.021173
Au     16.17194     17.18704     19.22737         0.042293     -0.007573      0.011713
Au     13.36753     17.01011     19.61684         0.000358      0.013495     -0.039742
Au     12.03870     18.21341     14.84908         0.037260     -0.009949     -0.015796
Au     13.34314     10.49203     16.41171        -0.008633     -0.007788      0.004748
Au     13.09730     15.43665     15.26179        -0.013119      0.021579     -0.002097
Au     14.04846     12.48475     18.24877         0.004910      0.013958     -0.015734
Au     16.79740     12.69537     18.86372        -0.010580      0.017007      0.001735
Au     11.82271     12.82471     16.25246        -0.020434      0.013374      0.021473
Au     14.56673     12.83439     15.42000         0.034858      0.031147     -0.005604
Au     14.84391     14.64912     19.87968         0.010484     -0.029235     -0.003186
Au     16.79473     17.21977     16.17082         0.005471      0.001095      0.016303
Au     19.91517     17.54930     16.64292        -0.007941     -0.002545      0.008756
Au     13.21895     20.48086     16.32578         0.040307      0.013509     -0.015500
