75
# total energy = -211.04007257 eVAu      8.76066      8.95657      5.98768        -0.067275     -0.033401     -0.139457
Au      6.47027      8.25767      9.59924        -0.129291     -0.020587      0.018055
Au      9.40374      8.25744      8.83598         0.082918      0.036292     -0.040088
Au      7.54264      6.72352      7.42795         0.048027      0.029934     -0.018814
Au      6.06959      9.06295      6.88349        -0.003097      0.020883      0.101816
Au      9.49016      6.25947      5.47792         0.034872     -0.017122      0.075074
Au     16.75791      7.41414      8.37762        -0.027203      0.063895      0.037902
Au     10.92786      8.67275      4.15667         0.076829      0.042189      0.058326
Au     10.02140      5.37612      8.14692        -0.017517     -0.124332      0.003688
Au     16.27133     10.16208      8.93685         0.203791      0.077571     -0.073963
Au     11.45784      7.84848      6.87587         0.036686     -0.005967      0.015706
Au     12.10819      5.10424      6.25235        -0.071655     -0.006534      0.064367
Au     15.40158      5.11991      9.62434        -0.041222      0.036403      0.048570
Au     11.60526      6.02281      3.69052         0.016238      0.031646      0.070938
Au     14.13502      6.64376      7.57649         0.023835     -0.052833     -0.076075
Au     11.99593      7.13500      9.60645         0.111847      0.031310     -0.036992
Au     13.56044      7.54987      4.93411        -0.012656      0.101962      0.034460
Au     12.69655      4.50069      8.91002         0.003286      0.059419     -0.031537
Au     15.37703      9.01583      6.46584        -0.065347     -0.010951      0.028812
Au     13.33591      9.42610      8.37490         0.008314     -0.123589      0.050186
Au      4.02933     13.17420      8.58234         0.166463     -0.033783      0.130341
Au      6.68153     13.34838      7.66219         0.046772      0.131836     -0.089495
Au      7.49194     11.45945      5.57653         0.035436      0.058548      0.090250
Au      4.87278     11.52785      6.48110         0.057410      0.034279      0.121769
Au      7.96137     10.69983      8.30588        -0.103697      0.097200      0.054352
Au      5.05867     10.62094      9.13957        -0.135499     -0.109587      0.040920
Au      8.54302     14.76442      9.24914        -0.044101     -0.017223     -0.037916
Au      9.37563     13.14893      6.94283        -0.057240      0.111554     -0.055011
Au     10.24057     11.26176      4.96729         0.008761     -0.051844      0.024013
Au     12.15495     12.83445      6.42197         0.020005     -0.000352     -0.002516
Au     14.71506     11.74630      7.16392         0.035465     -0.076888     -0.016859
Au     11.27671     14.54453      8.56793        -0.031173     -0.012329      0.033105
Au     10.75874     10.53550      7.60788         0.001272     -0.106833      0.078850
Au     12.69354     12.17345      9.08580        -0.036488     -0.036783      0.043971
Au      9.88829     12.26812      9.78150        -0.117382     -0.015576      0.077507
Au     12.90447     10.25448      5.49454         0.075754      0.035685     -0.094315
Au      7.63409      9.99805     13.94529        -0.070357     -0.026790      0.071322
Au      8.03573      5.93456     10.10348         0.014177     -0.029312      0.008952
Au      8.66183      5.36871     12.80769        -0.004772      0.005379      0.023136
Au      8.49017      9.94781     11.04815        -0.054495      0.136368      0.005185
Au      9.21100      7.62802     14.42482         0.046122      0.022906     -0.004327
Au      7.13213      7.67128     12.32210         0.001592      0.046363      0.018297
Au     11.28950      9.83480     10.33990         0.021737      0.023356      0.024905
Au     17.36231      8.42236     10.96587        -0.094218      0.058647      0.009225
Au     14.69745      7.78093     10.27770        -0.084145      0.050972     -0.023007
Au     14.01419      6.61247     14.11874        -0.006944     -0.026501     -0.078400
Au     13.36841      5.26176     11.60593         0.025096     -0.183333      0.070342
Au     16.02198      6.16504     12.19012        -0.078392      0.053589      0.009566
Au     10.66345      4.79646     10.88680         0.056042     -0.004849      0.001716
Au     15.40139      8.87963     13.06855         0.048068     -0.073840     -0.064608
Au     11.97308      8.27960     15.10787        -0.028919     -0.041678     -0.055038
Au     12.68315      8.20375     12.26698         0.066515      0.017687     -0.070430
Au     10.57231      9.92057     13.13055         0.018587      0.055994     -0.057263
Au     11.35314      5.86093     13.53742         0.044990      0.009687     -0.026289
Au      9.95504      7.54574     11.59307         0.076800      0.104499     -0.019028
Au      9.85450     10.00037     15.81192        -0.042804      0.023963     -0.033489
Au      6.32097     12.46734     13.35594        -0.048157     -0.083965     -0.004910
Au      9.11483     12.33487     12.56924        -0.063866      0.010143     -0.076841
Au      5.82165     14.81394     10.03192         0.042661     -0.106777     -0.044761
Au      4.44448     12.48646     11.29894         0.064473     -0.032248     -0.086618
Au      5.73148     10.03438     11.81214        -0.015443      0.010532     -0.052194
Au      8.37998     12.38529     15.29336         0.034780     -0.033079     -0.018677
Au      7.13225     12.37440     10.47910         0.028620     -0.009370     -0.002074
Au      7.72749     14.83028     12.06886         0.044856      0.048027     -0.093097
Au     12.48160     14.41784     13.41479        -0.056169      0.011341     -0.031596
Au     13.25654     14.43536     10.65085        -0.015926     -0.041213      0.066399
Au     14.66035     12.81127     12.65268        -0.005698      0.004589     -0.097238
Au     14.00666     10.45224     11.03891        -0.033090     -0.114345     -0.007242
Au     13.36705     10.57498     13.98496         0.029772      0.017449      0.069788
Au      9.71045     14.63584     14.08030         0.045095     -0.038515     -0.017106
Au     10.48660     14.82016     11.33108         0.022972      0.129688      0.017450
Au     11.24827     12.24959     14.76110        -0.127708      0.069028      0.021841
Au     15.36339     12.73460      9.77231         0.034730     -0.068623      0.050401
Au     11.90440     12.16198     11.90409        -0.063322     -0.104104      0.002053
Au     16.63503     11.04691     11.71290        -0.006400     -0.035751     -0.096288
