75
# total energy = -211.31113944 eVAu      8.67176      8.93799      5.85474        -0.002131      0.014130      0.021634
Au      6.39128      8.18940      9.64647        -0.010960     -0.005367      0.026019
Au      9.40613      8.28318      8.81650         0.008367     -0.002491      0.002346
Au      7.55899      6.73700      7.45634         0.004186     -0.017772      0.004669
Au      6.07321      9.06172      6.98099        -0.014869     -0.010909      0.003141
Au      9.52521      6.25229      5.55752        -0.024867      0.011174     -0.001310
Au     16.74175      7.44462      8.38499         0.016690     -0.012539      0.000001
Au     10.98906      8.70670      4.21024        -0.017100      0.019069      0.005952
Au      9.99177      5.27513      8.19201         0.006148      0.015785      0.012973
Au     16.47781     10.23783      8.84466        -0.024551     -0.005713      0.008696
Au     11.48540      7.83675      6.88754        -0.001491     -0.003643     -0.010957
Au     12.05927      5.05794      6.30479         0.030582     -0.031070      0.032255
Au     15.37627      5.13583      9.63617         0.035362     -0.009407      0.001724
Au     11.64787      6.04700      3.76774         0.022972     -0.007525      0.017574
Au     14.19235      6.56545      7.49253        -0.014161      0.010938     -0.012528
Au     12.01603      7.12322      9.57935        -0.022938     -0.013072      0.011813
Au     13.58656      7.63556      4.92689         0.045695      0.022668      0.019606
Au     12.71574      4.49226      8.92744        -0.007225     -0.013682     -0.007233
Au     15.39655      9.02358      6.48748         0.008013      0.007659     -0.016099
Au     13.32994      9.38166      8.36177         0.002538      0.011397     -0.007808
Au      4.13833     13.14997      8.65208        -0.013721      0.030920      0.031773
Au      6.70754     13.52293      7.55167         0.046276      0.008005      0.005738
Au      7.53943     11.51742      5.64314         0.016233      0.021861     -0.004381
Au      4.95006     11.54734      6.58738         0.026370     -0.025570     -0.003827
Au      7.90445     10.74451      8.33893        -0.019994      0.006251     -0.016226
Au      4.87541     10.48712      9.18988         0.009293     -0.017565      0.010235
Au      8.56233     14.80521      9.20590        -0.001908      0.026070     -0.004407
Au      9.40451     13.25554      6.89349         0.000898      0.009294     -0.001773
Au     10.25655     11.26273      5.00538         0.028294      0.022175     -0.012379
Au     12.16998     12.82503      6.46394         0.005389      0.006767     -0.018304
Au     14.72809     11.71131      7.17654         0.017288      0.006856      0.019139
Au     11.28918     14.52482      8.58677         0.022382      0.000444      0.009282
Au     10.72535     10.51123      7.62098        -0.007881     -0.022986      0.003243
Au     12.66730     12.11554      9.11384         0.025347      0.042925     -0.013896
Au      9.83460     12.27466      9.78656         0.007955     -0.007451     -0.004572
Au     12.97372     10.33407      5.43612        -0.014275     -0.003520      0.011998
Au      7.57655      9.95915     13.99608         0.005946     -0.012517     -0.007208
Au      8.06255      5.94824     10.12156        -0.014274     -0.015752      0.012585
Au      8.67724      5.38427     12.81300         0.007154     -0.010966     -0.000070
Au      8.44735      9.98080     11.04037         0.000459     -0.025921      0.006243
Au      9.22590      7.63933     14.40192         0.018927     -0.007475      0.027177
Au      7.15117      7.67997     12.33724        -0.007814     -0.006792      0.000106
Au     11.28271      9.83028     10.33659        -0.046097      0.002746     -0.023624
Au     17.32808      8.42970     10.95100        -0.004995     -0.001096     -0.002940
Au     14.67154      7.78548     10.25228        -0.001136     -0.009041     -0.014496
Au     14.01215      6.58216     14.08023        -0.027686      0.017478     -0.006108
Au     13.40040      5.07532     11.66262        -0.009844      0.027829      0.005757
Au     15.99701      6.18937     12.17472         0.017604      0.001369     -0.021800
Au     10.69271      4.80223     10.89421         0.014512     -0.017565      0.021370
Au     15.39680      8.88310     13.06611         0.009639      0.000746     -0.015295
Au     11.96928      8.29297     15.04456        -0.004126     -0.009808     -0.006643
Au     12.70054      8.19672     12.24392        -0.017951     -0.008516     -0.005972
Au     10.54599      9.94813     13.11626        -0.001258      0.011192     -0.028733
Au     11.37006      5.84607     13.49821         0.027574      0.006397      0.017827
Au      9.98073      7.58167     11.57846        -0.028477     -0.004341     -0.024939
Au      9.83314     10.01002     15.79435         0.002087     -0.016722     -0.011417
Au      6.27283     12.38327     13.37116        -0.012318      0.002544      0.009851
Au      9.06022     12.36065     12.55011        -0.015906     -0.007988     -0.031521
Au      5.86020     14.83561     10.01090         0.017086      0.031978     -0.007781
Au      4.44031     12.44001     11.30678        -0.025895     -0.012915      0.017025
Au      5.69264      9.99186     11.81320        -0.009562     -0.023160      0.012682
Au      8.35088     12.37846     15.27033         0.000323      0.008518      0.016809
Au      7.09510     12.39666     10.46999        -0.026699      0.026117      0.010527
Au      7.78479     14.90066     11.99760        -0.005361      0.017123     -0.010849
Au     12.45093     14.40621     13.39929         0.001726      0.007870      0.001501
Au     13.24015     14.40006     10.65678         0.034303     -0.021948      0.000136
Au     14.61908     12.76381     12.60626         0.008927     -0.001130     -0.016978
Au     14.00597     10.41862     11.02825        -0.027995      0.006008     -0.020521
Au     13.37601     10.60091     14.04291        -0.016272     -0.001690     -0.001814
Au      9.69374     14.63911     14.05391         0.013930      0.003081      0.008343
Au     10.51642     14.92916     11.31606         0.016206     -0.012196     -0.012630
Au     11.20140     12.26909     14.76924        -0.021051      0.017179     -0.006725
Au     15.36430     12.70124      9.74925        -0.019479     -0.003191      0.020521
Au     11.85835     12.14904     11.90953        -0.031473     -0.045726     -0.022269
Au     16.63922     11.02858     11.64401        -0.008941      0.004176     -0.012237
