75
# total energy = -211.27136644 eVAu      8.69651      8.94076      5.88597        -0.019608     -0.003047     -0.021762
Au      6.41166      8.20108      9.62905        -0.030795      0.013239      0.016139
Au      9.41680      8.27666      8.82297         0.002749      0.018850     -0.007325
Au      7.56983      6.74757      7.44668        -0.048986     -0.039399     -0.003489
Au      6.07019      9.06904      6.95232         0.000457     -0.020291      0.019193
Au      9.51069      6.24626      5.53219         0.031001      0.009735      0.012803
Au     16.74737      7.44898      8.38934        -0.018345     -0.019774      0.001072
Au     10.97854      8.70146      4.18794         0.005232     -0.017433      0.021208
Au      9.99171      5.28840      8.17969         0.020844      0.003544     -0.000905
Au     16.42953     10.22613      8.86061         0.034173     -0.012844      0.010752
Au     11.47418      7.84151      6.88414         0.020135     -0.005573      0.005894
Au     12.06354      5.07657      6.28501        -0.000156     -0.016594      0.010156
Au     15.37889      5.13420      9.64674        -0.003785      0.013749     -0.023467
Au     11.62713      6.03913      3.73409         0.024054      0.016740      0.055633
Au     14.17781      6.58566      7.51148         0.014778     -0.013069      0.004826
Au     12.01747      7.13330      9.59352        -0.012466     -0.015687     -0.033062
Au     13.56851      7.61152      4.93051         0.014917      0.017224     -0.012752
Au     12.70630      4.50881      8.90932         0.012818     -0.030285      0.038128
Au     15.37416      9.01368      6.48134         0.038151      0.022346      0.006811
Au     13.33256      9.39557      8.38020        -0.011751     -0.023985     -0.049138
Au      4.09997     13.15906      8.63082         0.069607     -0.021493      0.032309
Au      6.70607     13.47118      7.57100        -0.028195      0.041658      0.012446
Au      7.52100     11.49843      5.62800         0.014246      0.018696     -0.001075
Au      4.91708     11.54560      6.55243         0.037603      0.006162      0.044163
Au      7.91889     10.73355      8.32926        -0.014715      0.019285      0.025245
Au      4.92851     10.51501      9.16967        -0.047632      0.013829      0.021227
Au      8.54544     14.78575      9.21829         0.028499      0.021307     -0.014596
Au      9.39458     13.22483      6.89748        -0.006383      0.037078      0.013809
Au     10.25068     11.24745      5.01161        -0.005165      0.037607     -0.060639
Au     12.15648     12.81802      6.44782         0.037279      0.039604      0.010330
Au     14.72061     11.70996      7.17817         0.018859      0.019067     -0.032309
Au     11.26823     14.52019      8.59282         0.039625      0.034473     -0.031961
Au     10.74171     10.50992      7.62956        -0.014459     -0.010774      0.002611
Au     12.68102     12.14392      9.10112        -0.030242     -0.050530      0.027586
Au      9.85799     12.26608      9.79026        -0.058146      0.020201     -0.006051
Au     12.95680     10.31769      5.43815         0.023722     -0.011924      0.011676
Au      7.58050      9.96697     13.99035         0.014033      0.004357     -0.000094
Au      8.05816      5.94688     10.11425        -0.014698     -0.023703     -0.002199
Au      8.67607      5.40042     12.80523        -0.025261     -0.086620      0.034341
Au      8.46704      9.97002     11.04502        -0.041968      0.039690     -0.013340
Au      9.22794      7.63826     14.40527        -0.004838      0.015225      0.021920
Au      7.15572      7.69225     12.32468        -0.052256     -0.017584      0.029425
Au     11.28379      9.83856     10.34271        -0.005238     -0.035799     -0.027595
Au     17.33624      8.43976     10.95850        -0.022644     -0.026421     -0.012901
Au     14.67604      7.78829     10.26233         0.056622     -0.044089     -0.019010
Au     14.00526      6.58895     14.09332         0.019904     -0.003175     -0.024024
Au     13.38180      5.11070     11.65374         0.045242     -0.004996     -0.005091
Au     15.99692      6.17712     12.18585        -0.005095      0.029247     -0.022564
Au     10.68675      4.81040     10.89340         0.007848     -0.039946     -0.016592
Au     15.41035      8.87306     13.06519        -0.016136      0.008987     -0.000689
Au     11.96341      8.27277     15.06355         0.011066      0.039034     -0.014594
Au     12.70445      8.20328     12.25062        -0.033402     -0.024173      0.017367
Au     10.56834      9.94868     13.12152        -0.042145     -0.042696      0.012007
Au     11.36470      5.85411     13.50444         0.021906     -0.009237      0.016561
Au      9.97592      7.58131     11.57658         0.041946      0.021262      0.007312
Au      9.83776     10.00111     15.79269        -0.003755      0.016928      0.005962
Au      6.28495     12.40591     13.37121        -0.002002     -0.015886     -0.000632
Au      9.07800     12.35243     12.55300        -0.033559      0.025346      0.013226
Au      5.85038     14.81262     10.01704        -0.007747      0.021626     -0.018084
Au      4.45216     12.45738     11.29658        -0.023298     -0.014468     -0.007369
Au      5.70728     10.01057     11.80381        -0.009844     -0.029520      0.016212
Au      8.36209     12.37669     15.28080        -0.005769      0.002940     -0.021213
Au      7.11572     12.38514     10.47672        -0.018355      0.003938     -0.018679
Au      7.77068     14.88276     12.01684         0.012968      0.009657     -0.004599
Au     12.45809     14.41130     13.39914        -0.004512     -0.009547     -0.001573
Au     13.23727     14.40053     10.66462         0.012683      0.023540     -0.007165
Au     14.64096     12.79131     12.60443        -0.032635     -0.039327      0.023138
Au     14.00208     10.42232     11.03575         0.029812      0.030527     -0.003592
Au     13.38441     10.59288     14.03471        -0.015763      0.008214      0.001311
Au      9.70765     14.63773     14.06587        -0.023546     -0.006540     -0.021233
Au     10.50377     14.91497     11.32102         0.014274     -0.006848      0.010019
Au     11.20949     12.27143     14.77059        -0.008674     -0.005716      0.004412
Au     15.35979     12.69863      9.76504         0.028985      0.023072     -0.013615
Au     11.87494     12.13639     11.91641         0.007086      0.062246     -0.016997
Au     16.63895     11.03573     11.66564        -0.009158     -0.011236     -0.025257
