75
# total energy = -209.10355803 eVAu      7.92424      9.97930      4.24685         0.067529     -0.018068     -0.240849
Au      5.27633      8.44705      8.19672         0.051114     -0.215988      0.040390
Au      7.82660      9.29294      9.04355        -0.654065     -0.481988     -0.167701
Au      7.38984      6.59766      7.97311        -0.365839     -0.384935      0.025794
Au      8.78804      8.53834      6.51251        -0.199694     -0.142040     -0.700437
Au      6.61514     10.40083      6.64897        -0.203223     -0.031552     -0.244733
Au     13.90788      6.71175      6.06433         0.131389     -0.080365     -0.025680
Au     12.65711      8.89704      4.87769        -0.034467     -0.005917     -0.043817
Au     15.58982      7.09795      8.30183         0.172302     -0.166639     -0.106110
Au     12.73535      7.37235      8.60736         0.921415     -0.945510     -0.560441
Au     10.08791      8.24591      4.03067        -0.080592      0.111673     -0.246914
Au     12.44174      4.73178      7.49392         0.057583     -0.089002      0.047570
Au     13.13320      9.86367      9.67269         0.710074      0.186070     -0.189721
Au     11.05136      6.82566      6.18471         0.079286     -0.256189     -0.242962
Au     14.11976      5.11595      9.72108         0.066243     -0.130109     -0.094024
Au     10.02209      7.51541      8.81776        -0.424254     -0.769534     -0.228260
Au     14.39979      9.34559      7.06077         0.591573     -0.081412     -0.298172
Au     15.96696      9.66142      9.43385         0.079048      0.008652     -0.037108
Au      9.65472      4.93544      7.74876        -0.125106     -0.000478     -0.008912
Au     11.42166      9.46406      7.38664         0.132773      0.056399     -0.697807
Au      3.80200     13.74496      8.46178         0.167997     -0.011496     -0.009978
Au      5.95460     13.15566      6.78114        -0.426522      0.266861      0.154262
Au      8.14553     12.53196      5.33170         0.121041     -0.103702     -0.178791
Au      4.42078     11.03973      8.31256        -0.272890      0.221034      0.069201
Au      6.28336     14.74114      9.26545        -0.438339      0.207868     -0.339359
Au      7.02905     11.93200      9.19008        -0.848600      0.421221     -0.370710
Au      8.46957     14.09472      7.67047        -0.029840      0.566119     -0.281134
Au     10.50256     10.86304      4.96933        -0.208873     -0.118141     -0.564117
Au     13.49425     13.94574      9.90444         0.145868      0.202233     -0.128799
Au     10.72519     13.33426      6.16238         0.146918      0.259704     -0.092595
Au     13.29346     14.05391      7.09208        -0.037764     -0.085735      0.105842
Au     11.04425     14.83573      8.60692         0.107005      0.190097     -0.160819
Au      9.23219     11.22014      7.61513        -0.098680      0.248607     -0.635906
Au     11.78594     12.01417      8.49748         0.461157      0.770406     -0.488257
Au     14.70791     11.88021      8.23815         0.133677      0.155188     -0.184645
Au     13.01075     11.49203      5.92267         0.222752      0.250086     -0.118765
Au      6.59056      8.71922     12.96333        -0.095248     -0.521385      0.142431
Au      8.53833      5.37790     10.28626        -0.103179     -0.234441      0.058864
Au      5.41171      9.90367     10.68698        -0.575173     -0.228592      0.019598
Au      7.45661      6.03829     12.79210         0.008174      0.158597     -0.001348
Au      9.06029      7.85792     14.25842        -0.164515     -0.221586      0.156740
Au      6.26885      7.19791     10.51678        -0.170714     -0.172481     -0.003947
Au      8.91667      8.06648     11.34165        -0.524054     -0.614026      0.424856
Au     10.36192     10.05628      9.92611        -0.117381     -0.018558      0.035225
Au     14.65447      7.53896     13.66827         0.097183     -0.069056      0.177426
Au     14.63298      7.60324     10.87991         0.476466     -0.244403      0.098612
Au     13.07285      5.68073     12.27869         0.030078     -0.076631      0.059172
Au     13.24562      9.72053     12.42043         1.049815     -0.138396      0.855550
Au     16.11923      9.53923     12.24333         0.175140      0.065901      0.090796
Au     10.25651      5.78483     12.58507        -0.148075     -0.264552      0.162210
Au     13.49340      9.53384     15.28126         0.151670     -0.165866      0.080208
Au     11.69912      7.87722     11.09449         0.098305     -0.644404      0.359235
Au     11.33137      5.13557     10.08509         0.105510     -0.595608      0.003289
Au     10.52697      9.90067     12.72970        -0.168999     -0.209540      0.666127
Au     11.84519      7.60209     14.04223         0.151444     -0.288776      0.406885
Au     10.69637      9.75221     15.56121        -0.088346     -0.046942      0.076583
Au      7.48906     13.30668     14.44296        -0.273023      0.124835      0.116312
Au      8.96335     15.30874     12.97814         0.067423      0.225193      0.115222
Au      5.09508     14.03432     13.18154         0.084748     -0.108360      0.048614
Au      8.78226     15.47174     10.15705         0.117617      0.304814     -0.029007
Au      5.83411     11.32370     13.07284        -0.286581      0.505705      0.163288
Au      8.18863     10.54389     14.41250        -0.153331     -0.074428      0.503848
Au      4.69448     12.61263     10.81500        -0.403049      0.093234     -0.043650
Au      8.08971     10.75485     11.46609        -0.369926     -0.185280      0.295154
Au      7.31129     13.53563     11.55460        -0.450995      0.273261      0.500177
Au     11.33414     14.45619     14.21905         0.016563      0.208883      0.034280
Au      9.72312     12.53501     12.78825        -0.050803      0.757620      0.879179
Au     12.19538     11.79289     14.25310         0.139678      0.173333      0.386387
Au     14.91363     11.80836     11.03701         0.485587      0.175917      0.166600
Au     14.95852     11.55182     13.85368         0.226749      0.046257      0.023962
Au     11.25606     14.74720     11.41387         0.101859      0.543350      0.144180
Au      9.84184     12.45610     15.63589        -0.087816      0.082515      0.136890
Au      9.54832     12.72652     10.02788         0.095990      0.645024     -0.132337
Au     11.96733     11.87849     11.30078         0.377109      0.624918      0.095540
Au     13.60437     13.73646     12.71123         0.056105      0.110538     -0.028689
