75
# total energy = -211.17663452 eVAu      7.95082     10.06597      4.24638        -0.002095      0.008553      0.002376
Au      5.19039      8.37886      8.30664        -0.016685     -0.060704     -0.013259
Au      7.70611      9.27705      8.96923        -0.021483      0.010413      0.028499
Au      7.27111      6.44724      8.09558         0.000034      0.022104     -0.004133
Au      8.57749      8.35161      6.37776        -0.001947     -0.002026      0.010884
Au      6.51844     10.47153      6.65398        -0.017169      0.019905      0.022185
Au     13.98811      6.63308      6.03581        -0.015192      0.007657     -0.020052
Au     12.67378      8.86530      4.93565         0.034191     -0.009795     -0.009566
Au     15.71558      7.00040      8.28844        -0.012037     -0.006961     -0.006622
Au     12.84571      7.37117      8.47719         0.002919     -0.005281      0.019009
Au     10.09894      8.36904      3.98543        -0.013894     -0.003615      0.024083
Au     12.41113      4.74048      7.52482         0.005702     -0.011007     -0.003998
Au     13.13329      9.87670      9.65374         0.011548     -0.018501     -0.038471
Au     11.03547      6.76426      6.07847        -0.017263      0.011122      0.023011
Au     14.17443      5.13723      9.69909        -0.008454     -0.018411     -0.024526
Au      9.98445      7.43811      8.73148         0.013692      0.038660     -0.027117
Au     14.61669      9.28417      6.98791        -0.018665      0.029367      0.001071
Au     15.92009      9.48706      9.53080         0.022468     -0.007642     -0.015060
Au      9.61614      4.88011      7.78118         0.018384     -0.026003     -0.004429
Au     11.30309      9.51078      7.30459        -0.031137     -0.056302     -0.020881
Au      3.98697     13.73095      8.54326         0.053831     -0.025670      0.011506
Au      6.03002     13.32620      6.74034        -0.016506      0.003969      0.008088
Au      8.21087     12.61908      5.26902         0.024631      0.027887     -0.072564
Au      4.27901     10.97675      8.47054         0.002997     -0.031475     -0.002159
Au      6.36025     15.04605      9.00159        -0.006645     -0.029081     -0.005546
Au      6.77495     12.08586      9.20397         0.011341      0.008899     -0.028494
Au      8.55955     14.47500      7.42914        -0.013935      0.045715      0.009041
Au     10.55683     10.99058      4.78430        -0.012533     -0.012205     -0.029358
Au     13.52995     13.92583      9.94644        -0.002663     -0.014367     -0.055541
Au     10.79503     13.44569      6.08015         0.063309     -0.014942     -0.034851
Au     13.35404     13.99459      7.14448         0.029729     -0.001347      0.023387
Au     11.09583     14.95159      8.54338         0.045832      0.011613      0.007943
Au      9.10541     11.34069      7.57635        -0.025536     -0.005057     -0.015154
Au     11.71144     12.12065      8.46429         0.007527      0.031156     -0.029591
Au     14.75304     11.79738      8.25981        -0.039580     -0.010589     -0.008577
Au     13.06046     11.46539      5.93787         0.014080      0.027632      0.021110
Au      6.54266      8.63937     13.02020         0.038682     -0.074807      0.035973
Au      8.56572      5.25008     10.34906         0.012715      0.018918     -0.019376
Au      5.09174      9.71229     10.85108        -0.018511     -0.026300     -0.033445
Au      7.51395      6.01861     12.82282        -0.001433      0.012914      0.033265
Au      9.10164      7.84348     14.26285        -0.013168      0.009062     -0.027147
Au      6.16142      7.07325     10.59991         0.012233     -0.000651     -0.012823
Au      8.83975      8.01774     11.30854        -0.038049     -0.019362     -0.010025
Au     10.28617     10.08058      9.90336        -0.052493     -0.009135      0.035274
Au     14.75428      7.48782     13.65272         0.000502      0.002308      0.026620
Au     15.68973      7.00805     11.07754        -0.069130      0.055862      0.012691
Au     13.20644      5.71867     12.21446         0.013037     -0.024636     -0.005886
Au     13.33262      9.67283     12.44049         0.033033      0.017935      0.018560
Au     16.19536      9.47670     12.28152         0.016384      0.033885      0.018886
Au     10.32415      5.72876     12.57842         0.007635      0.039818      0.029028
Au     13.54143      9.48753     15.25094         0.002806     -0.000837     -0.003317
Au     11.74936      7.80315     11.01801        -0.047235     -0.004233      0.032030
Au     11.40033      4.91759     10.13343        -0.011014      0.009104     -0.042059
Au     10.50988      9.92286     12.72947        -0.006212      0.006262     -0.052544
Au     11.91923      7.53776     14.04437        -0.000828      0.018181      0.024434
Au     10.73407      9.82637     15.48026         0.011664      0.005473      0.032578
Au      7.35148     13.35316     14.39446         0.003700     -0.029853     -0.010636
Au      8.94927     15.37878     12.91394        -0.002833     -0.001928     -0.018752
Au      4.89961     13.92117     13.26009        -0.011970      0.003322     -0.023627
Au      8.82905     15.62738     10.08925         0.001133      0.025701      0.000936
Au      5.71820     11.27850     13.13556        -0.047886      0.049607      0.055460
Au      8.10972     10.51828     14.47034         0.047590      0.027673      0.040206
Au      4.40901     12.44891     10.94423        -0.008397      0.010521      0.000760
Au      7.92974     10.77659     11.43752         0.023825      0.012680     -0.040416
Au      7.03941     13.80568     11.50180         0.005866     -0.017949     -0.012886
Au     11.30295     14.50772     14.17088         0.017163     -0.023635      0.006102
Au      9.60422     12.62918     12.80612        -0.004690     -0.004449      0.010987
Au     12.40705     12.01623     14.79000         0.018234      0.036697      0.084968
Au     15.01142     11.77776     11.07187        -0.002859      0.015743      0.034427
Au     14.99501     11.52385     13.86784         0.022695     -0.003769     -0.000747
Au     11.30095     14.91881     11.38210         0.012001      0.002192      0.033517
Au      9.75583     12.53296     15.57745         0.018564     -0.053933     -0.008463
Au      9.39835     12.86751     10.02199        -0.054367     -0.009635     -0.016152
Au     11.93196     11.94017     11.34175        -0.026034     -0.032835      0.008134
Au     13.58261     13.69892     12.75251         0.028853     -0.009580      0.021220
