75
# total energy = -211.05843693 eVAu      7.93978     10.03689      4.22513         0.049443      0.006428     -0.030787
Au      5.19902      8.39734      8.27345        -0.005923     -0.003612      0.045824
Au      7.72945      9.27028      8.97986         0.032558     -0.000136      0.019020
Au      7.29139      6.48511      8.07512        -0.019790     -0.054672      0.047124
Au      8.58136      8.33223      6.34865         0.037866      0.031946      0.046482
Au      6.54502     10.43686      6.65650        -0.042975      0.039009     -0.065749
Au     13.97095      6.65591      6.04259         0.021079      0.001453     -0.016724
Au     12.71856      8.87552      4.89522        -0.054857      0.012291      0.044833
Au     15.70371      7.02643      8.28016        -0.012344     -0.058530      0.050325
Au     12.87338      7.37252      8.51820        -0.023315     -0.033437     -0.057803
Au     10.12802      8.34617      3.96755        -0.054950      0.027903     -0.000942
Au     12.39478      4.76140      7.51284         0.020193     -0.071704      0.059446
Au     13.19471      9.85719      9.67546        -0.045100      0.071956     -0.036404
Au     11.03175      6.76804      6.08348         0.012040      0.019115     -0.057159
Au     14.12950      5.10606      9.69704         0.068657      0.057660     -0.009647
Au     10.02475      7.43202      8.71854        -0.049600      0.003463      0.045789
Au     14.67521      9.30991      6.93817        -0.079827      0.023906      0.035182
Au     15.99321      9.54877      9.47531        -0.085843     -0.021044      0.026676
Au      9.60849      4.86895      7.76949         0.000387      0.027974      0.039651
Au     11.34247      9.47004      7.28247         0.015282      0.032373      0.065463
Au      3.92300     13.75882      8.52796         0.047835     -0.045565     -0.020369
Au      5.98757     13.27876      6.76049         0.005870      0.038086     -0.022764
Au      8.18243     12.59653      5.27291        -0.020141     -0.008735      0.025581
Au      4.31279     11.00987      8.43580        -0.042985      0.004515      0.018420
Au      6.32148     14.98115      9.06737         0.033722      0.023276     -0.038342
Au      6.82935     12.06376      9.19428        -0.007317     -0.004916      0.024396
Au      8.51567     14.44689      7.45974        -0.012871     -0.004167      0.025825
Au     10.53736     10.94996      4.80423         0.015842      0.044719      0.000406
Au     13.50150     13.94860      9.91167         0.040395     -0.016224      0.028573
Au     10.75740     13.40434      6.12345         0.034126     -0.004950     -0.071529
Au     13.31912     14.01216      7.12546         0.008484     -0.019583      0.034941
Au     11.06582     14.93049      8.55998         0.009426      0.017820      0.019864
Au      9.13798     11.28271      7.55581         0.013911      0.040862      0.059924
Au     11.72441     12.08736      8.49388         0.038613      0.040375     -0.030684
Au     14.73683     11.81771      8.23804         0.013785     -0.018620      0.010082
Au     13.04501     11.47192      5.95063        -0.007662     -0.037416     -0.044668
Au      6.55789      8.66480     13.00501        -0.030485      0.023449     -0.007371
Au      8.56666      5.26473     10.33682        -0.017214     -0.009256     -0.005512
Au      5.09663      9.77038     10.83179         0.034316     -0.040128     -0.002859
Au      7.48084      6.01656     12.81487         0.010998      0.039616     -0.043015
Au      9.06468      7.83983     14.24697         0.035241     -0.014489      0.030770
Au      6.17144      7.13735     10.58486         0.006454     -0.071366     -0.025171
Au      8.85937      7.99647     11.29296         0.032444      0.070614      0.056448
Au     10.34178     10.06102      9.92636        -0.069818     -0.024833     -0.011225
Au     14.70056      7.48286     13.68752         0.090444      0.007233     -0.057423
Au     15.46423      7.14172     11.04917         0.055634     -0.037631      0.001409
Au     13.17010      5.66165     12.23770         0.000494      0.051440     -0.022249
Au     13.37186      9.66079     12.44534        -0.055839      0.044068      0.038008
Au     16.20024      9.54525     12.25432        -0.009397     -0.100402      0.033167
Au     10.29835      5.72232     12.59857         0.021394     -0.018729     -0.057990
Au     13.49276      9.47966     15.25581         0.061825      0.025613      0.011302
Au     11.76863      7.78218     11.05604        -0.061751      0.028111     -0.013022
Au     11.36716      4.82521     10.14741         0.012288      0.108181     -0.017147
Au     10.54826      9.91406     12.76228        -0.018661     -0.013730     -0.015332
Au     11.88450      7.49002     14.10368        -0.007782      0.041853     -0.027260
Au     10.69106      9.76656     15.53999         0.019694      0.045511     -0.078044
Au      7.36204     13.33879     14.40465        -0.011385      0.039706      0.025982
Au      8.97277     15.39150     12.92855        -0.005931     -0.019079      0.008724
Au      4.88817     13.94658     13.28300         0.059591      0.018175     -0.027258
Au      8.80719     15.62502     10.11438        -0.003587     -0.040489     -0.030705
Au      5.73379     11.32616     13.12145         0.034824     -0.109541     -0.012752
Au      8.11555     10.52184     14.48736        -0.040516     -0.021543     -0.013018
Au      4.46054     12.52410     10.91756        -0.036855     -0.032042     -0.014998
Au      7.97763     10.77704     11.44707        -0.013340     -0.021030      0.004543
Au      7.06157     13.78086     11.54396         0.035775      0.001437      0.004601
Au     11.33655     14.50612     14.17169        -0.028383      0.011761     -0.000554
Au      9.62807     12.63356     12.82883         0.001368     -0.004936     -0.021913
Au     12.34285     11.95274     14.64625         0.011779      0.023334      0.038346
Au     15.03720     11.84413     11.04664        -0.028780     -0.026121      0.025637
Au     14.99310     11.56408     13.85079        -0.000189     -0.036973      0.009014
Au     11.32339     14.96990     11.39621        -0.037392     -0.042660     -0.005391
Au      9.75958     12.49542     15.60000         0.024428      0.044325      0.019772
Au      9.41311     12.86004     10.03375         0.040422     -0.017855     -0.014821
Au     11.96611     11.94466     11.38858        -0.011265     -0.035298     -0.065678
Au     13.63118     13.76280     12.72313        -0.054855     -0.048112      0.012733
