75
# total energy = -211.41129490 eVAu      8.29241      8.96075      4.76814        -0.037183     -0.009133      0.015475
Au      5.53876      8.22862      8.78813         0.045397     -0.008280      0.001692
Au      8.66013      7.64850      9.87875         0.013060     -0.084598     -0.072905
Au      6.78657      5.72358      9.37053        -0.029858     -0.022417     -0.020832
Au      7.39956      7.21510      6.95700        -0.012164      0.021468      0.027698
Au      6.60468      9.94084      6.71649        -0.017719     -0.009245     -0.044148
Au     14.93653      8.60969      7.71653         0.010401     -0.028339      0.041960
Au     11.04654      9.74474      5.17312        -0.003416      0.012215      0.032122
Au     15.86914      6.77158      9.61301        -0.018260      0.001288      0.004018
Au     13.26376      8.09469     10.00711         0.115618      0.041618     -0.045107
Au     10.00770      7.06947      5.67914         0.010439     -0.028464      0.026340
Au     11.61281      4.36649      9.05987         0.013966      0.017435      0.025512
Au     11.73689      5.11920      6.41676         0.036011     -0.019367      0.026586
Au     13.84927      5.90666      7.97257         0.004750     -0.013628      0.016558
Au     11.15460      7.26609      8.38024         0.013985     -0.018156     -0.075360
Au     12.82536      7.75780      6.01782         0.011811     -0.011275      0.029321
Au      9.35419      9.29471      7.52092        -0.023591     -0.034808     -0.007529
Au      9.17329      5.25670      7.81255         0.016938      0.005596      0.041844
Au      5.14497     13.82016      9.23617         0.006462      0.006203      0.006277
Au      6.79864     12.69761      7.22765        -0.032624      0.043930      0.010169
Au      4.86981     11.01467      8.51700        -0.017364      0.038575     -0.031716
Au      7.60365     10.39988      9.45423        -0.038540      0.041111     -0.029050
Au      7.34953     15.25821      8.24618         0.005724     -0.015385      0.035490
Au      7.85213     13.20457     10.17972        -0.038625      0.052527     -0.003022
Au      8.82191     11.51589      5.63352        -0.025362     -0.001214     -0.017992
Au     11.51886     12.35287      6.24330         0.021709      0.027949     -0.007270
Au     12.42882     13.12088      8.87124        -0.009285     -0.003063      0.004462
Au     10.11646     14.81615      9.07828        -0.021451      0.017707      0.001907
Au      9.77390     11.97182      8.43811        -0.074697     -0.006713      0.016429
Au     14.53538     11.24283      8.77390         0.096692     -0.002179     -0.026732
Au     12.02432     10.06816      8.22093        -0.071300     -0.059868      0.041469
Au     13.64011     10.52080      6.10336         0.060597     -0.019786     -0.076679
Au      9.25060     14.05901      6.55168        -0.016096      0.035301      0.003247
Au      7.25754      9.85092     14.70104         0.039119     -0.011568     -0.018379
Au      3.90026      9.43549     10.75525         0.009677      0.034734      0.014752
Au      4.92263      6.87298     11.19705        -0.031564     -0.012217      0.000269
Au      6.73745      8.92675     11.67627        -0.038455      0.027486      0.004379
Au      8.37609      7.22403     14.83799        -0.010336     -0.006235      0.041734
Au      5.71077      7.61700     13.90635        -0.026941     -0.004365      0.019368
Au      7.41728      6.03173     12.27324         0.010923      0.027191     -0.010413
Au     10.36617      9.73750     10.39933         0.027514      0.144225     -0.049500
Au      9.08327      4.56128     10.54109         0.035010      0.011639      0.013417
Au     14.17000      7.41447     14.78184         0.021141     -0.035172     -0.028179
Au     15.77026      9.39661     10.58445        -0.006500     -0.045551     -0.023273
Au     13.83932      5.05177     10.67544         0.011984     -0.024497     -0.000157
Au     12.84227      5.52617     13.28557        -0.002822      0.001404     -0.032133
Au     12.39220      8.43450     12.63507         0.052596      0.016951      0.057869
Au     15.08542      7.07363     12.22292        -0.001685     -0.020811     -0.005404
Au      9.91142      5.34305     13.38901         0.020151     -0.002930     -0.032495
Au     14.93641      9.74976     13.27703        -0.002876     -0.027005     -0.022537
Au     12.79351      9.69758     15.26042        -0.002767     -0.036292     -0.010227
Au     11.10595      6.52210     11.06646         0.050753     -0.115773      0.017414
Au     11.50749      3.70529     11.72300         0.037739      0.020679     -0.017080
Au      9.45744      8.40136     12.62012         0.058058     -0.043166      0.086800
Au     11.26098      7.22625     14.99067        -0.010345     -0.015812     -0.040868
Au      9.90465      9.57916     15.57440        -0.024445      0.006738     -0.026614
Au      6.43904     12.49619     13.91467        -0.003068      0.050638      0.014151
Au      8.38876     11.14084     12.15634        -0.024354      0.055171      0.021344
Au      3.12762     12.15504     10.32144         0.003492      0.005781      0.035350
Au      5.92759     14.55973     11.92798         0.001614      0.001601     -0.010652
Au      8.50193     14.30452     13.08481        -0.038739      0.037201     -0.013206
Au      3.89012     12.87420     12.94095        -0.017344     -0.010770     -0.031021
Au      4.70564     10.19679     13.52717        -0.003470      0.020578     -0.031587
Au      5.73123     11.64001     11.22491         0.016583      0.025796     -0.012755
Au      8.10963     15.97572     10.85911        -0.011807     -0.031486     -0.020214
Au     11.19194     13.75176     13.78521        -0.015404      0.012329      0.022169
Au     13.07466     13.82081     11.59468         0.016464      0.025485     -0.017384
Au     11.52494     12.01072     15.88626        -0.039191     -0.012873      0.012142
Au     12.82987     10.82775     10.98907        -0.073039     -0.061830      0.033672
Au     10.74800     15.47155     11.70125        -0.019310      0.027740     -0.009937
Au     11.00610     10.85339     13.20108        -0.012032     -0.023976      0.035034
Au     15.20962     12.00138     11.49907         0.094725      0.009865      0.035958
Au      8.97150     12.17433     14.85711         0.007701      0.016109      0.044477
Au     10.53641     12.69041     11.05958        -0.072782     -0.000359      0.030105
Au     13.56651     12.12211     13.84038        -0.021991     -0.003654     -0.026622
