75
# total energy = -211.34179508 eVAu      8.65180      8.94954      5.85227         0.028631      0.017114      0.035697
Au      6.36931      8.17055      9.67290        -0.000361     -0.011309     -0.001177
Au      9.39465      8.28074      8.80579        -0.025306     -0.014201      0.001505
Au      7.55184      6.72072      7.47441         0.010023     -0.018786     -0.010010
Au      6.06640      9.03745      7.00857        -0.009351      0.012563      0.015016
Au      9.52756      6.26410      5.57291        -0.021432      0.002334      0.027774
Au     16.74854      7.43316      8.37826        -0.006789      0.002511     -0.009111
Au     10.98762      8.71625      4.23138        -0.009652      0.032149      0.003632
Au      9.99715      5.27832      8.21113         0.001785      0.003576      0.007306
Au     16.49515     10.23624      8.84001        -0.025727     -0.001726      0.003631
Au     11.49505      7.82424      6.88084         0.027502     -0.022277      0.017440
Au     12.07117      5.02375      6.33362        -0.016982     -0.010126      0.033012
Au     15.39416      5.12927      9.62619        -0.005382     -0.001446     -0.012216
Au     11.68407      6.05576      3.82378         0.003493     -0.001321     -0.019866
Au     14.19722      6.55813      7.47996         0.000191      0.021685      0.030278
Au     12.00172      7.10777      9.57546         0.009602      0.007818     -0.021518
Au     13.62389      7.66696      4.92902         0.005807      0.010657      0.003932
Au     12.72593      4.47012      8.94630         0.015043      0.024980      0.004690
Au     15.42737      9.04108      6.48592        -0.018657     -0.005962      0.028546
Au     13.32579      9.37982      8.34454        -0.000516     -0.015244     -0.008519
Au      4.17101     13.15665      8.68367         0.015048     -0.006418      0.006672
Au      6.72783     13.56263      7.54561         0.025998     -0.026094      0.013785
Au      7.57011     11.54881      5.64470         0.004952      0.006717      0.014835
Au      4.99513     11.54263      6.62682         0.032229      0.001042      0.008913
Au      7.87796     10.75892      8.34401        -0.013365     -0.020470     -0.040707
Au      4.84100     10.46374      9.21197         0.036448     -0.001176      0.007225
Au      8.58446     14.84110      9.19480         0.009619     -0.011403      0.014226
Au      9.42524     13.28827      6.88976         0.007438      0.005869     -0.000244
Au     10.27962     11.29410      4.99485         0.004455     -0.029498      0.031416
Au     12.18484     12.83810      6.46337         0.011994      0.001863     -0.014581
Au     14.74443     11.71774      7.18463        -0.007483     -0.003466     -0.015294
Au     11.31740     14.53052      8.58817        -0.014340      0.014706      0.010778
Au     10.70826     10.50197      7.61126        -0.000063      0.041987     -0.059350
Au     12.66828     12.11809      9.10543        -0.038635     -0.025947     -0.019543
Au      9.81498     12.27808      9.77233        -0.006789      0.008724     -0.015462
Au     12.97882     10.34524      5.44611         0.005884      0.015012      0.008493
Au      7.57887      9.94791     13.99612        -0.008676     -0.010982     -0.007003
Au      8.05248      5.93374     10.13579         0.005850     -0.019812      0.007373
Au      8.68867      5.36849     12.82164         0.008452      0.019919      0.003445
Au      8.42009      9.97879     11.03449        -0.002725     -0.008664     -0.008616
Au      9.23882      7.62928     14.41249        -0.028148     -0.029334     -0.034811
Au      7.14470      7.65881     12.35357         0.021643      0.009773      0.015800
Au     11.25714      9.82317     10.30951        -0.018041      0.014924      0.033693
Au     17.32027      8.42477     10.94132         0.001499      0.003257     -0.000680
Au     14.66054      7.77658     10.23251        -0.011932      0.002838     -0.011183
Au     14.01151      6.59228     14.06373         0.024490      0.031569     -0.001797
Au     13.41503      5.07208     11.66595        -0.005154      0.018427     -0.009762
Au     16.00447      6.19874     12.15655        -0.002831      0.003437      0.019831
Au     10.70670      4.78280     10.91226        -0.003128      0.011043      0.005689
Au     15.38797      8.89253     13.05185        -0.028005      0.004446     -0.027678
Au     11.96723      8.30256     15.02753         0.019605     -0.019065      0.008372
Au     12.68286      8.19179     12.22398         0.003531      0.012758     -0.009169
Au     10.52448      9.94788     13.09955        -0.001508      0.011209     -0.048051
Au     11.38047      5.84456     13.50619        -0.015517     -0.004274     -0.011341
Au      9.96410      7.57227     11.57043        -0.024921      0.009194     -0.006408
Au      9.83187     10.00814     15.78204        -0.002515      0.025701      0.017020
Au      6.25672     12.36417     13.38157        -0.026180     -0.014204     -0.004456
Au      9.02856     12.36689     12.53281         0.015089     -0.008341      0.006588
Au      5.87721     14.88242      9.99452         0.057811     -0.001768      0.011257
Au      4.41076     12.41046     11.32902         0.019704     -0.017841      0.019777
Au      5.67277      9.96668     11.83196         0.003159     -0.000156      0.011531
Au      8.34201     12.38207     15.26759         0.006104     -0.011992     -0.011171
Au      7.06256     12.41520     10.46940        -0.023854      0.032259      0.008262
Au      7.80180     14.92874     11.98099        -0.004213      0.011914     -0.033401
Au     12.44730     14.39819     13.39065         0.007294     -0.017827     -0.003583
Au     13.26461     14.38684     10.65884        -0.029067      0.026516      0.003536
Au     14.60442     12.74217     12.59862         0.016558     -0.011694      0.015694
Au     13.98373     10.41112     11.00781         0.010761     -0.012023      0.010924
Au     13.35718     10.60612     14.04332        -0.007447     -0.006024     -0.025950
Au      9.68992     14.64047     14.04335         0.001708     -0.006172     -0.008093
Au     10.53701     14.92796     11.30510        -0.008857     -0.000641     -0.001107
Au     11.17863     12.27845     14.76009         0.000539     -0.018743     -0.023117
Au     15.36120     12.70291      9.75232         0.035193     -0.019507     -0.010743
Au     11.83102     12.14018     11.89223        -0.014192     -0.007592     -0.003282
Au     16.63283     11.02377     11.61959        -0.027391     -0.006963      0.021401
