75
# total energy = -210.99491187 eVAu     14.98121     16.96971      9.18015         0.024090      0.006068      0.022196
Au     16.05999     15.05284     14.38149        -0.046897      0.025767      0.038389
Au     11.54935     18.93730     12.08405         0.041270      0.028448     -0.029277
Au     21.13033     12.39655     11.72794        -0.021418     -0.000504      0.039296
Au     17.42813     15.66190      9.54037         0.006000     -0.005620      0.099612
Au     17.01589     18.32175     10.61102        -0.008850     -0.048618      0.050022
Au     22.05832     13.03919     14.34708        -0.073096      0.007661     -0.033013
Au     13.48391     14.71931     10.08551         0.002676      0.007037      0.018426
Au     15.06172     10.04191     14.30287         0.050818      0.028613      0.009318
Au     19.28438     12.73735     13.85749         0.032522      0.000745      0.047220
Au     12.29486     17.30976      9.93473        -0.006629      0.027662      0.047984
Au     18.99453     19.48566     12.25972        -0.033702     -0.076268      0.019402
Au     15.91576     13.34119     10.45970        -0.003153     -0.004358      0.003025
Au     16.91378      9.90697     12.18410        -0.009267      0.006999      0.019954
Au     11.08736     13.96512     13.62071        -0.056064      0.003907      0.063832
Au     18.35687     12.02984     11.00048        -0.003726      0.002560     -0.026470
Au      9.97486     16.63863     13.40356         0.018023     -0.068954      0.002660
Au      9.95307     19.63906     14.14134         0.008638      0.040917     -0.060892
Au     14.02198     13.80780     12.78740         0.015619      0.029039      0.015908
Au     12.54388     11.44421     13.79540         0.052618      0.050184      0.006599
Au     19.65436     10.15181     12.76625        -0.012851      0.042525      0.029005
Au     12.74422     16.38716     12.61939        -0.045099      0.053442      0.017327
Au     16.51698     12.43009     13.26223        -0.018157      0.010146     -0.014777
Au     16.31768     19.93166     13.01051        -0.001309     -0.077415      0.009297
Au     19.80510     14.32160     10.17929         0.008813      0.020462      0.023388
Au     13.60306     20.18329     13.74387         0.011419      0.010765     -0.009081
Au     12.05545     12.58036     11.25185         0.007149      0.022732      0.033747
Au     15.47551     16.04135     11.75322        -0.009169     -0.011236      0.019548
Au     10.76068     15.13691     11.08413         0.004326      0.020745      0.047817
Au     17.53448     17.31951     13.31512        -0.052685     -0.031157      0.030861
Au     21.02946     15.09427     12.70023         0.126838      0.053915     -0.044311
Au     14.43790     11.12306     11.63020         0.030424      0.051593      0.073369
Au     14.76956     17.65139     14.16625         0.057746     -0.031821      0.026370
Au     20.46901     17.63017     13.83418        -0.027391     -0.062253      0.006049
Au     17.96838     14.66514     12.23934        -0.020699      0.003672     -0.021602
Au     19.53415     16.95672     11.14204         0.002013     -0.033536      0.048414
Au     14.27371     18.79745     11.32892        -0.007354      0.081749     -0.018367
Au     12.36662     19.59363     19.00784        -0.016570      0.000614     -0.040038
Au     12.56237     14.93016     18.14197        -0.023149     -0.079464     -0.005043
Au     17.78884     19.22467     17.80273        -0.050266     -0.052580     -0.032706
Au     14.08585     17.49167     16.94064        -0.006703     -0.020948     -0.050266
Au      9.15928     17.62914     15.90742         0.019960     -0.018751      0.004245
Au     18.49729     19.46616     15.03407        -0.054135     -0.068380     -0.006451
Au     19.09128     17.26707     19.40560        -0.011677     -0.023090     -0.069291
Au     19.48750     13.22147     19.30514        -0.018443      0.015163     -0.029800
Au     21.62892     15.61901     15.48596        -0.024215     -0.034398     -0.014785
Au     20.56522     10.73146     15.39272        -0.056180      0.038751     -0.047424
Au     18.73017     11.12737     17.54692         0.007336      0.023448     -0.034267
Au     18.88649     15.33263     14.92617         0.005439     -0.002807      0.015845
Au     18.22506     15.17801     17.68962         0.010115     -0.016144     -0.022902
Au     20.38668     13.28467     16.62133         0.148586     -0.062008      0.072573
Au     15.97533     10.66097     17.03219         0.045889      0.031884     -0.038800
Au     20.98719     15.53293     18.24990        -0.031908      0.002840     -0.027386
Au     10.52962     15.30002     16.03960        -0.027923     -0.056094      0.063930
Au     17.61591     14.97075     20.45829        -0.010533     -0.020267     -0.066830
Au     15.10381     19.61397     18.56881        -0.010573     -0.023971     -0.074936
Au     10.54134     19.87220     16.86678         0.014760      0.011044      0.051090
Au     11.18095     17.31833     17.89968        -0.084395     -0.071786      0.083435
Au     17.41413     13.05956     15.97533         0.011565      0.006558      0.009493
Au     17.82717     10.15015     14.96001         0.003698     -0.137565      0.036380
Au     15.83599     19.97355     15.80621         0.051539      0.024068     -0.054756
Au     15.42731     14.89501     17.17924        -0.042683      0.034038     -0.063029
Au     16.26301     17.07939     19.08413        -0.035516      0.061387      0.097898
Au     13.48164     17.14218     19.69014        -0.026203     -0.037698     -0.075142
Au     12.02917     18.00929     15.00845         0.033826      0.023161     -0.018109
Au     13.22526     10.47589     16.39071         0.053942      0.048901     -0.037387
Au     13.26260     15.36276     15.22772         0.003264      0.000089      0.033920
Au     13.99376     12.47629     18.24473         0.020355      0.066382     -0.059700
Au     16.72680     12.71906     18.91943        -0.014481     -0.066539      0.022008
Au     11.85620     12.90675     16.23062         0.076915      0.021642     -0.027830
Au     14.60589     12.75402     15.40683         0.010179      0.080807     -0.017268
Au     14.83749     14.66672     19.90071         0.000307      0.025638     -0.083788
Au     16.89777     17.16850     16.13977        -0.062797     -0.020998     -0.035947
Au     19.89268     17.61440     16.66915         0.045669      0.042570     -0.030505
Au     13.21254     20.34944     16.45831         0.001522      0.068892     -0.037677
