75
# total energy = -211.27019653 eVAu      7.94496     10.11841      4.28413         0.017831      0.034494      0.005945
Au      5.15297      8.27565      8.30588        -0.007445     -0.005051      0.033985
Au      7.61560      9.29666      8.97978         0.008423     -0.003563     -0.005204
Au      7.27725      6.42331      8.08217        -0.012817     -0.007560      0.026636
Au      8.54216      8.39567      6.40959        -0.008694     -0.039769     -0.011725
Au      6.47784     10.50819      6.66002        -0.040462     -0.000140      0.006783
Au     13.97221      6.63733      6.02056        -0.016302      0.012725      0.015365
Au     12.66205      8.87579      4.93582         0.002720      0.015989     -0.021134
Au     15.69372      6.99173      8.27707        -0.011238      0.020087      0.017419
Au     12.81514      7.33850      8.48936        -0.008392      0.024913      0.009951
Au     10.06814      8.37592      4.03645        -0.005303      0.032360      0.009890
Au     12.44295      4.70927      7.49854        -0.022637      0.018133      0.001751
Au     13.07292      9.86229      9.62678         0.007996      0.003418      0.005237
Au     11.02757      6.76945      6.10605        -0.011962      0.024421     -0.004781
Au     14.19580      5.10996      9.68694        -0.014313     -0.012077      0.011411
Au      9.94652      7.45500      8.73330        -0.014074      0.019038      0.004238
Au     14.55287      9.27854      7.02163         0.014629      0.004918     -0.022959
Au     15.88184      9.46695      9.55956        -0.015043      0.023541     -0.014541
Au      9.63849      4.87279      7.78381        -0.007706     -0.010071      0.020413
Au     11.24939      9.51395      7.28113         0.018325     -0.019242     -0.006549
Au      4.08607     13.64333      8.55733         0.050617     -0.020064     -0.024491
Au      6.09778     13.37744      6.67994         0.058068      0.006617     -0.021410
Au      8.29311     12.70276      5.19862         0.015296      0.019431     -0.002810
Au      4.25473     10.87340      8.50481        -0.006588     -0.034961      0.019832
Au      6.42034     15.05024      8.95667         0.022936     -0.003940     -0.016181
Au      6.72202     12.10523      9.16467        -0.004072     -0.009688     -0.004348
Au      8.63764     14.53553      7.38165         0.014225      0.018718     -0.024175
Au     10.58011     11.01551      4.72184         0.024032      0.041688      0.002044
Au     13.52910     13.88061      9.95758        -0.005448      0.002879      0.011634
Au     10.87764     13.48169      6.01638        -0.010525      0.029402      0.005594
Au     13.41592     13.99884      7.15923        -0.036832     -0.026834     -0.006147
Au     11.15969     14.96955      8.54159        -0.012683     -0.002515     -0.008809
Au      9.05398     11.36778      7.53168        -0.018867     -0.033981     -0.019497
Au     11.66344     12.13763      8.41480         0.002580     -0.012594     -0.003164
Au     14.72509     11.77556      8.29257         0.005633      0.013211     -0.015805
Au     13.06364     11.48449      5.93292         0.018407     -0.014701      0.001732
Au      6.55531      8.61455     13.07071        -0.019880      0.010323     -0.010250
Au      8.57834      5.27065     10.35675         0.001154     -0.027136     -0.006553
Au      5.08941      9.63809     10.87843        -0.022285     -0.020419      0.031448
Au      7.54021      6.00270     12.85607         0.003710      0.012802     -0.024651
Au      9.12694      7.87564     14.25329         0.020432      0.000360      0.002483
Au      6.15968      7.01434     10.61028        -0.009093     -0.019097      0.004778
Au      8.77527      8.03052     11.29762         0.022910      0.022036     -0.005485
Au     10.20130     10.10399      9.86591         0.002179     -0.018691      0.004803
Au     14.76974      7.49838     13.67835        -0.006472      0.020928      0.009144
Au     15.63733      7.03944     11.07945        -0.007589     -0.013514     -0.005299
Au     13.22574      5.75680     12.19255        -0.016035      0.006846      0.012417
Au     13.33563      9.69538     12.43325        -0.007810     -0.008457      0.026482
Au     16.21908      9.48496     12.31408        -0.011433     -0.006599     -0.012164
Au     10.35333      5.78004     12.58555        -0.013167     -0.022374     -0.011755
Au     13.58973      9.51341     15.26528        -0.010913      0.002755      0.018424
Au     11.69543      7.83827     11.03410         0.021248      0.011662     -0.031356
Au     11.41661      5.00520     10.09774        -0.015523     -0.064150      0.025266
Au     10.47600      9.92703     12.69362         0.024907      0.010339      0.007436
Au     11.95373      7.58894     14.04568        -0.022819     -0.013921      0.011128
Au     10.80561      9.86396     15.45291        -0.005525      0.008285     -0.002502
Au      7.35298     13.31006     14.37558         0.014805      0.013516     -0.006167
Au      8.94618     15.35583     12.88313         0.011326     -0.002146      0.015885
Au      4.91380     13.91605     13.21057        -0.001620     -0.048178      0.025918
Au      8.87244     15.64789     10.06407         0.015390     -0.004991      0.010180
Au      5.67596     11.23831     13.18982         0.011494     -0.020676     -0.007186
Au      8.12521     10.52598     14.49318         0.009128     -0.021178     -0.023935
Au      4.37975     12.35982     10.97089        -0.000798     -0.007029      0.007932
Au      7.87489     10.79535     11.42999         0.002668      0.018207     -0.006876
Au      7.04221     13.78193     11.46251        -0.003085      0.023054     -0.004433
Au     11.30192     14.46030     14.18626         0.009064     -0.004399     -0.012736
Au      9.59482     12.62045     12.78552         0.001177     -0.011066     -0.019937
Au     12.54138     12.10961     15.05419        -0.000073     -0.004016      0.020945
Au     14.99656     11.74674     11.10831         0.000337      0.023572     -0.006985
Au     15.02883     11.51213     13.91744        -0.003887      0.021526     -0.018134
Au     11.31124     14.87092     11.39795        -0.001752      0.008073     -0.008087
Au      9.79808     12.50459     15.56834         0.000114      0.008027     -0.005384
Au      9.35608     12.87996      9.97992         0.002730     -0.012422     -0.004335
Au     11.89164     11.91731     11.29437         0.021025      0.012379      0.023815
Au     13.56156     13.61697     12.78378        -0.006355      0.006536     -0.000404
