75
# total energy = -211.21728002 eVAu      7.94479     10.08033      4.25569         0.008275      0.022771      0.028435
Au      5.18032      8.34068      8.29849        -0.022496     -0.021699      0.020540
Au      7.67447      9.28287      8.97326        -0.024629      0.007841      0.004105
Au      7.26768      6.43840      8.08969         0.025246     -0.003257     -0.003885
Au      8.57798      8.37161      6.39142        -0.056425      0.003492      0.000065
Au      6.50326     10.49236      6.66189         0.003586     -0.020050     -0.021996
Au     13.98870      6.62979      6.02698        -0.022340      0.016747      0.001056
Au     12.66423      8.86295      4.94697         0.016833      0.021029     -0.039058
Au     15.71265      6.99495      8.27781        -0.023044      0.002984      0.021267
Au     12.83634      7.35493      8.47856        -0.013974      0.014198      0.022444
Au     10.08279      8.36610      4.00519         0.013108      0.016817      0.006678
Au     12.42738      4.72631      7.51358        -0.007351     -0.005345     -0.000839
Au     13.10907      9.86780      9.63741        -0.004874     -0.000183      0.017830
Au     11.03295      6.76255      6.09332        -0.004244      0.013084     -0.012492
Au     14.18543      5.12860      9.69381        -0.004105     -0.006332      0.000138
Au      9.96788      7.45175      8.72785         0.005681     -0.026022      0.016861
Au     14.58397      9.28565      7.00426         0.019899     -0.016404     -0.002558
Au     15.90366      9.46984      9.54512         0.005098      0.025527     -0.004723
Au      9.62673      4.87707      7.77639        -0.002847      0.002304      0.018292
Au     11.27608      9.51370      7.30005         0.011742     -0.008358     -0.019781
Au      4.01525     13.70644      8.55442         0.046651     -0.043839     -0.019012
Au      6.04936     13.34267      6.72454         0.019760      0.017762     -0.032022
Au      8.23605     12.64395      5.24179         0.036743      0.035245     -0.008576
Au      4.27236     10.94203      8.47829        -0.013396     -0.028311      0.023420
Au      6.37378     15.04973      8.98306         0.036279     -0.005777      0.001583
Au      6.75489     12.09408      9.18799        -0.011593      0.002039     -0.006253
Au      8.58462     14.49642      7.41509         0.033787      0.015459     -0.020338
Au     10.56621     10.99871      4.75875        -0.000760      0.001829     -0.003660
Au     13.53826     13.90887      9.94837        -0.032815     -0.008648      0.010629
Au     10.82999     13.45852      6.05224         0.002738      0.002047      0.004201
Au     13.38786     13.99956      7.15212        -0.021148     -0.005872     -0.004112
Au     11.12431     14.96088      8.54024        -0.005114     -0.006851      0.008923
Au      9.08631     11.35713      7.56651        -0.012337     -0.011881     -0.040317
Au     11.69841     12.13209      8.44334        -0.026791     -0.004114     -0.006903
Au     14.74316     11.78732      8.27229        -0.006177      0.002088      0.008224
Au     13.06653     11.47678      5.93614        -0.022898     -0.007397     -0.003762
Au      6.54818      8.62497     13.04299         0.001845      0.017632     -0.000212
Au      8.57608      5.25845     10.34696        -0.018244      0.007855      0.022856
Au      5.09258      9.68443     10.85664        -0.006446     -0.004331      0.016807
Au      7.52604      6.01063     12.84707        -0.005646     -0.000946     -0.034126
Au      9.11450      7.85833     14.26427        -0.012002      0.000332     -0.019252
Au      6.16491      7.04979     10.60355        -0.010349     -0.005542      0.004445
Au      8.80854      8.01238     11.30337         0.010791      0.035254     -0.003468
Au     10.24891     10.09133      9.89423         0.004476     -0.010366     -0.022112
Au     14.76703      7.48697     13.66393        -0.024133      0.014949     -0.001719
Au     15.68581      7.01544     11.07954        -0.069840      0.025161     -0.004527
Au     13.21837      5.73122     12.20704        -0.010072      0.010478     -0.012085
Au     13.33131      9.68528     12.43890         0.012864     -0.006733     -0.011746
Au     16.20691      9.47778     12.29972        -0.003739      0.013659     -0.014882
Au     10.33409      5.75405     12.58917         0.012861     -0.010591     -0.031588
Au     13.55953      9.49027     15.25254         0.008195      0.028851      0.012334
Au     11.72532      7.81596     11.02214        -0.001620      0.004194      0.011489
Au     11.40542      4.96414     10.11610         0.006326     -0.023075      0.006325
Au     10.48995      9.92532     12.70641         0.015270     -0.005651      0.029629
Au     11.93110      7.56205     14.03810         0.019667     -0.001216      0.027504
Au     10.76308      9.84473     15.46874         0.005022     -0.011601     -0.001047
Au      7.34983     13.33819     14.39073         0.003217     -0.015212     -0.015508
Au      8.94275     15.37268     12.90449         0.016753     -0.012338     -0.015463
Au      4.90703     13.92488     13.23619        -0.003856     -0.014086      0.004231
Au      8.84139     15.63514     10.08008         0.020922      0.002763     -0.007336
Au      5.70342     11.26813     13.15744        -0.011090     -0.026567      0.003576
Au      8.11856     10.51798     14.48315        -0.007498      0.017220     -0.008196
Au      4.39396     12.42070     10.95296         0.010776     -0.035686      0.011274
Au      7.90726     10.78291     11.43009        -0.005642     -0.000151      0.021338
Au      7.04239     13.79296     11.48176        -0.008806      0.006633      0.016162
Au     11.30152     14.49989     14.17982         0.004243     -0.040018     -0.011452
Au      9.59885     12.62876     12.80351         0.007219     -0.012138     -0.024298
Au     12.45105     12.05013     14.88386         0.054459      0.021154      0.068085
Au     15.00560     11.76323     11.08626        -0.003024      0.001111      0.007643
Au     15.01160     11.51523     13.88445        -0.008328      0.007867      0.019552
Au     11.30428     14.89829     11.38915         0.007482     -0.003604      0.004371
Au      9.76688     12.51927     15.57346         0.021316      0.000004      0.005966
Au      9.37825     12.87009     10.01146         0.007864      0.020036     -0.024616
Au     11.91198     11.93139     11.31808         0.009176     -0.000273      0.015307
Au     13.57270     13.66062     12.76698         0.003525      0.012050     -0.009661
