75
# total energy = -209.12678051 eVAu      8.30345      8.96580      4.82532        -0.246430      0.026496     -0.399504
Au      5.79134      8.29293      8.97688        -0.571372     -0.275117     -0.378651
Au      8.64190      7.63182      9.79792        -0.081649     -0.022178      0.110790
Au      6.72924      5.68859      9.39955        -0.115304     -0.223462     -0.165251
Au      7.43350      7.25508      7.02939        -0.335863     -0.210693     -0.386893
Au      6.63463      9.91379      6.76603        -0.195907     -0.094036     -0.437816
Au     14.79774      8.73100      7.80911         0.523544     -0.189773     -0.273084
Au     11.03365      9.78183      5.29714         0.051489      0.006002     -0.647561
Au     15.75636      6.87006      9.61858         0.436614     -0.231295     -0.063108
Au     13.15050      8.13558     10.02916         0.241330      0.080409     -0.091807
Au      9.99602      7.11448      5.72899        -0.033040     -0.213526     -0.343792
Au     11.50468      4.50866      9.08116         0.124056     -0.513102     -0.117341
Au     11.68043      5.18295      6.45160         0.154890     -0.360562     -0.265650
Au     13.72406      6.06316      8.01006         0.360012     -0.400492     -0.225971
Au     11.11091      7.31119      8.38742        -0.000003     -0.120056     -0.169410
Au     12.74946      7.86321      6.13623         0.288216     -0.262768     -0.535901
Au      9.36304      9.27132      7.54233        -0.089244      0.009115     -0.101954
Au      9.13642      5.33820      7.86139        -0.124402     -0.475068     -0.267125
Au      5.24238     13.70026      9.29871        -0.408684      0.429694     -0.314156
Au      7.03237     12.53423      7.50894        -0.448165      0.379271     -0.576106
Au      4.93734     10.95804      8.57086        -0.448423      0.049207     -0.226703
Au      7.66910     10.38508      9.44263         0.012254     -0.036692     -0.004409
Au      7.42981     15.16957      8.28062        -0.234117      0.359791     -0.235295
Au      7.93379     13.12793     10.17653        -0.085042      0.368870     -0.076722
Au      8.86857     11.48027      5.71518        -0.121280      0.094714     -0.451654
Au     11.55314     12.31382      6.34495         0.111973      0.392652     -0.418681
Au     12.36226     12.92814      8.94355         0.266198      0.586875     -0.238542
Au     10.14843     14.68510      9.10533         0.213791      0.400834     -0.173643
Au      9.78931     11.86821      8.47088         0.095623      0.116276     -0.084721
Au     14.53446     11.32583      8.75134         0.317561      0.210924     -0.150017
Au     12.02685     10.03637      8.22201         0.180311      0.123010     -0.091746
Au     13.66362     10.56203      6.08015         0.130724      0.147638     -0.111822
Au      9.31623     13.99292      6.61571         0.066452      0.329988     -0.360588
Au      7.37049      9.78259     14.40710        -0.260917      0.017881      0.691312
Au      4.03290      9.44458     10.81366        -0.616025     -0.183423     -0.108065
Au      4.96602      6.87173     11.23902        -0.391240     -0.234579     -0.027134
Au      6.80665      8.97061     11.64478        -0.171373     -0.346126      0.144797
Au      8.31787      7.18741     14.86282         0.014994     -0.099780      0.282531
Au      5.72668      7.58923     13.85468        -0.287035     -0.136871      0.326505
Au      7.53233      6.27013     12.17463        -0.391378     -0.436269      0.233734
Au     10.37785      9.68281     10.41094         0.034130      0.014871     -0.013842
Au      9.05198      4.68662     10.54740        -0.053361     -0.592249     -0.025536
Au     14.09502      7.46101     14.75457         0.315589     -0.210390      0.286228
Au     15.58885      9.47743     10.52943         0.610787     -0.107565      0.023878
Au     13.62581      5.29910     10.66911         0.489492     -0.579237      0.016621
Au     12.71905      5.65427     13.25702         0.235647     -0.407997      0.263552
Au     12.34504      8.47552     12.63106         0.100368     -0.025676      0.179246
Au     14.93813      7.20856     12.18451         0.475792     -0.290317      0.173014
Au      9.86420      5.45299     13.34056         0.048202     -0.495078      0.326889
Au     14.79753      9.79550     13.17889         0.551231     -0.015019      0.366936
Au     12.75285      9.71538     15.20893         0.173356     -0.017165      0.368081
Au     11.01631      6.65062     11.05715        -0.111566     -0.268884      0.106325
Au     11.42347      3.83704     11.71069         0.095405     -0.466519      0.099142
Au      9.48461      8.42687     12.69575        -0.121450     -0.058783     -0.029229
Au     11.19369      7.27914     14.93573         0.093551     -0.269397      0.480544
Au      9.89250      9.57507     15.48556        -0.063184      0.046541      0.549448
Au      6.47791     12.41148     13.86861        -0.276071      0.211012      0.365786
Au      8.45306     11.12468     12.13832         0.018450     -0.032365      0.014424
Au      3.20348     12.09484     10.36756        -0.299592      0.041496     -0.231430
Au      5.99612     14.41140     11.89118        -0.250462      0.578802      0.230231
Au      8.58298     13.99720     12.84164        -0.144635      0.664050      0.462005
Au      3.93942     12.78906     12.89868        -0.142944      0.186570      0.297177
Au      4.78892     10.15767     13.41342        -0.448323     -0.022603      0.473788
Au      5.86206     11.60420     11.19689        -0.518765      0.124465      0.117924
Au      8.17292     15.87085     10.83669        -0.131936      0.457331      0.116547
Au     11.19595     13.67615     13.71910         0.110187      0.311966      0.343146
Au     13.05854     13.73437     11.52220         0.252531      0.524795      0.062485
Au     11.50530     11.98678     15.83661        -0.014773      0.244648      0.399242
Au     12.83535     10.79916     11.00231         0.181819      0.125484     -0.082529
Au     10.78090     15.37504     11.65355         0.193742      0.450045      0.073834
Au     11.00609     10.82137     13.19245        -0.025467      0.067546      0.114604
Au     15.23509     12.04494     11.48430         0.149833      0.161941     -0.055695
Au      8.97628     12.12312     14.81898         0.064925      0.152045      0.459272
Au     10.54736     12.58344     11.07752         0.107546      0.128609     -0.042356
Au     13.48862     12.09796     13.73938         0.366803      0.303245      0.441403
