75
# total energy = -211.25650345 eVAu     14.97158     16.98561      9.20969        -0.005055      0.021869      0.034565
Au     16.04997     15.06723     14.42888         0.020672     -0.002463     -0.052153
Au     11.60270     19.07683     12.06202        -0.029515      0.032611      0.044099
Au     21.11249     12.37734     11.74886         0.003193      0.023314     -0.050831
Au     17.40613     15.63596      9.63289         0.026724      0.015499     -0.013830
Au     17.03246     18.29673     10.63221        -0.033750      0.005683      0.040648
Au     22.08158     12.99911     14.31370         0.021396      0.024876      0.019071
Au     13.45836     14.75710     10.12959         0.005555      0.011531      0.041343
Au     15.14042     10.05606     14.30963        -0.036922      0.010600      0.025920
Au     19.30499     12.75812     13.91448        -0.030352      0.004148     -0.016912
Au     12.26791     17.35279      9.97576         0.023551      0.025235     -0.002443
Au     19.02587     19.42185     12.29405        -0.009146     -0.013845     -0.002412
Au     15.88730     13.35241     10.44190         0.022993     -0.001722      0.035912
Au     16.93140      9.91611     12.18104         0.009221      0.024001     -0.023293
Au     11.03756     13.95558     13.69938        -0.011810     -0.013048     -0.012891
Au     18.34793     12.03038     10.96583        -0.005139      0.018681      0.002436
Au      9.94086     16.57095     13.46809        -0.002957     -0.009631      0.000406
Au      9.91337     19.67047     14.10138        -0.010271     -0.097167     -0.057945
Au     13.97957     13.88731     12.83640         0.007619     -0.016197      0.005529
Au     12.57205     11.45803     13.81438        -0.005302      0.042968      0.065722
Au     19.64954     10.18529     12.76142        -0.024780     -0.028475     -0.027916
Au     12.69969     16.48265     12.64646         0.000279     -0.035570      0.001913
Au     16.53710     12.44098     13.27297         0.002127      0.031506     -0.008776
Au     16.34580     19.93631     12.95432         0.009245     -0.032572     -0.020986
Au     19.83979     14.31626     10.22041        -0.015044     -0.044782     -0.013058
Au     13.64476     20.25884     13.68446         0.045131     -0.038194     -0.000645
Au     12.02106     12.63411     11.31631        -0.013569      0.019489      0.030255
Au     15.43467     16.07806     11.79296         0.027451     -0.005092      0.017527
Au     10.73926     15.18168     11.14150         0.001430     -0.017699      0.042030
Au     17.52664     17.28515     13.32833        -0.045895      0.005245     -0.003566
Au     21.21405     15.10418     12.64559        -0.040660     -0.042219      0.041729
Au     14.45958     11.22400     11.68612         0.004874     -0.038313     -0.007533
Au     14.77276     17.65907     14.16811        -0.031511      0.047114      0.030388
Au     20.49313     17.54811     13.84812        -0.013728     -0.002066      0.012545
Au     17.97278     14.64415     12.26788        -0.025857     -0.004506      0.012415
Au     19.56494     16.90382     11.18700        -0.002485      0.030216      0.011116
Au     14.28380     18.90886     11.24914         0.043433      0.002939     -0.000869
Au     12.35352     19.51800     18.88316         0.005258     -0.020023     -0.043608
Au     12.45289     14.85629     18.16936         0.009286      0.006010      0.022643
Au     17.74536     19.22281     17.77547         0.008440     -0.046634     -0.032750
Au     13.98996     17.52982     16.90934         0.007114      0.007312      0.008233
Au      9.17085     17.61936     15.89730         0.017981     -0.075737     -0.001076
Au     18.46890     19.41121     15.03121         0.016113      0.022165      0.005812
Au     19.03541     17.23338     19.30274         0.036065     -0.001701      0.007239
Au     19.51319     13.23382     19.25251        -0.029119      0.024644     -0.032820
Au     21.65620     15.52150     15.47219        -0.032434     -0.050930      0.021718
Au     20.58717     10.70928     15.34777         0.007323     -0.012277      0.026312
Au     18.82535     11.14071     17.49843         0.023695      0.050218     -0.038398
Au     18.90265     15.31347     14.93976        -0.025324      0.005000      0.018030
Au     18.19389     15.15240     17.63182         0.023603     -0.037320     -0.016675
Au     20.84631     13.08215     16.80924         0.098451     -0.049194      0.042768
Au     16.06557     10.66372     16.99068        -0.012540      0.022812      0.015669
Au     20.96914     15.49777     18.19539        -0.050330      0.009106     -0.025437
Au     10.41841     15.21008     16.15490        -0.019290      0.053838     -0.044533
Au     17.56990     14.95955     20.35300         0.026294     -0.015509      0.024619
Au     15.07654     19.64446     18.44010        -0.019806     -0.002489     -0.007081
Au     10.54082     19.83445     16.82515         0.040503     -0.002000      0.008062
Au     10.98955     17.23136     18.02401         0.045469      0.015884     -0.024889
Au     17.42810     13.04655     15.97208         0.002912      0.023789      0.002158
Au     17.88907      9.99032     14.96823         0.027249      0.058782     -0.000514
Au     15.82496     20.04085     15.72084         0.040487      0.015950     -0.010337
Au     15.36945     14.95272     17.16872        -0.031053      0.011024      0.038238
Au     16.19907     17.20131     19.28406        -0.046182     -0.006331     -0.031920
Au     13.39405     17.06675     19.63109        -0.013602     -0.000768     -0.029266
Au     12.02318     18.09652     14.94649         0.012040      0.046303     -0.014862
Au     13.31030     10.48065     16.38183         0.008688      0.034283     -0.003908
Au     13.16919     15.40334     15.25446        -0.025460      0.018291      0.006082
Au     14.02668     12.49742     18.21193        -0.006025     -0.034244      0.002685
Au     16.75159     12.68637     18.88300         0.014238     -0.009804     -0.016995
Au     11.85089     12.85979     16.25861         0.025007     -0.023786     -0.076909
Au     14.60831     12.79388     15.39330        -0.043206      0.003013     -0.004411
Au     14.81389     14.65965     19.86255         0.026508      0.025083     -0.018847
Au     16.84499     17.17001     16.15851        -0.011317      0.053353      0.016792
Au     19.91048     17.60033     16.63656         0.002992     -0.027966     -0.001480
Au     13.19540     20.46769     16.38000        -0.041172     -0.044111      0.010148
