75
# total energy = -211.52975207 eVAu      8.29669      8.92134      4.83194        -0.004137     -0.002337      0.009778
Au      5.54412      8.26686      8.79993        -0.014529     -0.001697     -0.007955
Au      8.77325      7.60658      9.88583         0.001029     -0.001920      0.005525
Au      6.80114      5.75383      9.40099         0.011194     -0.005869     -0.003209
Au      7.39239      7.20752      6.99185         0.001856     -0.000049      0.000047
Au      6.55258      9.95750      6.69074        -0.010907      0.007262     -0.000957
Au     15.01765      8.54973      7.69924        -0.001419      0.002933      0.000083
Au     11.04096      9.71382      5.27164        -0.011323      0.005690     -0.011184
Au     15.92915      6.71401      9.61184        -0.010679      0.003855      0.002774
Au     13.35103      8.13927      9.96971         0.016151     -0.004930     -0.002968
Au     10.03567      7.03468      5.72256        -0.004081      0.001812      0.000877
Au     11.66945      4.33575      9.06514         0.002810      0.008582     -0.007426
Au     11.79078      5.08194      6.42459         0.009784      0.003586      0.003262
Au     13.90643      5.85689      7.98570         0.001478     -0.006852     -0.008333
Au     11.23412      7.26342      8.36623        -0.007157     -0.001467     -0.000252
Au     12.87473      7.71951      6.03628         0.003692     -0.000883     -0.002397
Au      9.31080      9.27676      7.57243         0.003482     -0.001147      0.004966
Au      9.21769      5.27862      7.86609        -0.005235     -0.000005      0.001945
Au      5.11087     13.86463      9.23139         0.002708     -0.000042     -0.008300
Au      6.72833     12.74433      7.17711         0.003175     -0.018418      0.013301
Au      4.81015     11.07220      8.47670         0.005508      0.001682     -0.009274
Au      7.49984     10.45029      9.41775        -0.008936     -0.001944      0.003287
Au      7.33175     15.27501      8.24853        -0.000198      0.000712      0.001211
Au      7.79657     13.24814     10.18308         0.002719     -0.006670      0.001816
Au      8.78830     11.50959      5.64643        -0.007448      0.004281     -0.002055
Au     11.49630     12.33802      6.26990         0.019116      0.008998      0.003306
Au     12.40448     13.05192      8.89778         0.001817     -0.002525      0.001076
Au     10.11458     14.82515      9.07677        -0.000303      0.010033     -0.002331
Au      9.69007     12.01657      8.42367        -0.003300      0.009178      0.004805
Au     14.53924     11.15524      8.79684        -0.002525     -0.012262      0.004194
Au     11.96399     10.06830      8.26512        -0.009663      0.000501     -0.001001
Au     13.63678     10.48160      6.14858         0.009803     -0.018506     -0.010699
Au      9.21725     14.07317      6.54118        -0.000314     -0.003461     -0.000711
Au      7.25043      9.87830     14.67032        -0.008938      0.003317      0.014591
Au      3.90554      9.48863     10.75245        -0.003428     -0.006670      0.002431
Au      4.91552      6.91882     11.20098         0.005847      0.004457      0.000687
Au      6.79068      8.93800     11.65766         0.017472      0.007942     -0.007843
Au      8.36941      7.23382     14.79478         0.010435     -0.006435     -0.000010
Au      5.69602      7.65558     13.88402         0.004021      0.001919     -0.005826
Au      7.43672      6.07364     12.25600        -0.018268      0.009037      0.002145
Au     10.17999      9.94486     10.39708        -0.015951     -0.011766      0.007210
Au      9.14332      4.58673     10.57114         0.006702      0.005252      0.006304
Au     14.21655      7.37149     14.76769         0.007947      0.001639     -0.008899
Au     15.85612      9.34207     10.58560        -0.000427      0.001976      0.000134
Au     13.93524      4.95907     10.67329         0.006701     -0.003685     -0.001447
Au     12.89108      5.49056     13.26833         0.004637      0.010254      0.000885
Au     12.46679      8.42743     12.60745        -0.006499      0.001315      0.006028
Au     15.13373      7.01696     12.20921         0.006994     -0.002080      0.008165
Au      9.94418      5.34269     13.32485         0.001095     -0.000253     -0.010056
Au     14.97389      9.70130     13.25772         0.004063     -0.000825      0.000537
Au     12.79971      9.64338     15.23220        -0.004256      0.002111      0.001359
Au     11.26743      6.47507     11.03236        -0.001988     -0.000091     -0.000046
Au     11.58008      3.65112     11.71675        -0.005169      0.013913     -0.001313
Au      9.55486      8.34531     12.57796        -0.000030     -0.001856     -0.002246
Au     11.26853      7.21448     14.92060        -0.005432      0.000045      0.001664
Au      9.88117      9.55682     15.55634         0.002888      0.000111     -0.002032
Au      6.39925     12.57368     13.94514         0.013348      0.003723      0.003023
Au      8.31105     11.21642     12.20944        -0.008784     -0.001347      0.002885
Au      3.09541     12.19839     10.32117         0.001963     -0.001992     -0.002721
Au      5.89534     14.60447     11.92657         0.006759      0.003867      0.004543
Au      8.46163     14.37901     13.13440        -0.004430     -0.025106     -0.002253
Au      3.85595     12.91681     12.93565         0.002581     -0.001026      0.000236
Au      4.70335     10.24293     13.50007        -0.002556     -0.007776      0.002009
Au      5.69452     11.68461     11.22257         0.007388      0.007432     -0.005145
Au      8.09169     15.99133     10.85897        -0.001172      0.000277     -0.001796
Au     11.15824     13.74502     13.79510        -0.005839      0.005858      0.004120
Au     13.04529     13.79856     11.59430         0.013090      0.003007     -0.016294
Au     11.50049     11.94505     15.85646        -0.008791     -0.005655     -0.002949
Au     12.75694     10.81478     10.98854        -0.009787      0.001903      0.006063
Au     10.72420     15.49332     11.71959         0.000012     -0.000903      0.000778
Au     10.94473     10.81999     13.19438         0.001387     -0.006887     -0.005713
Au     15.18965     11.94664     11.48768         0.016234     -0.010763      0.009744
Au      8.93701     12.20789     14.89242        -0.012210      0.009301      0.002265
Au     10.46614     12.74831     11.09081        -0.006809      0.006764     -0.005450
Au     13.51616     12.04981     13.78744        -0.004966      0.011572      0.011028
