75
# total energy = -211.27351155 eVAu     14.96857     16.98716      9.21770         0.007712      0.027348      0.010668
Au     16.04894     15.07159     14.44054         0.029361     -0.023618     -0.099563
Au     11.61033     19.09293     12.05813        -0.050587      0.046319      0.089515
Au     21.11335     12.37681     11.74884        -0.001146      0.006815     -0.058186
Au     17.40661     15.63742      9.64026         0.015694      0.010328     -0.027927
Au     17.04061     18.29546     10.62892        -0.053783      0.014301      0.053339
Au     22.09251     12.98600     14.31067         0.018722      0.046108      0.029682
Au     13.45223     14.76588     10.14144         0.014340     -0.004720      0.037561
Au     15.14570     10.05950     14.30866        -0.046104      0.000951      0.032473
Au     19.31313     12.75743     13.92220        -0.049100      0.005578     -0.021241
Au     12.26288     17.35962      9.98095         0.019907      0.024035     -0.012688
Au     19.03179     19.41527     12.29944         0.005315     -0.003960     -0.022017
Au     15.88551     13.35707     10.44462         0.021365     -0.000716      0.043248
Au     16.93028      9.92287     12.18002         0.016550      0.006560     -0.041005
Au     11.03785     13.95569     13.70734        -0.014459     -0.018697     -0.014401
Au     18.34762     12.03080     10.96598        -0.004718      0.026161      0.001014
Au      9.93554     16.56670     13.47192        -0.001425     -0.006096      0.021151
Au      9.89646     19.66497     14.09676         0.008282     -0.105474     -0.108050
Au     13.97657     13.89439     12.84389         0.013631     -0.015712      0.014922
Au     12.57434     11.45152     13.81535        -0.017273      0.063235      0.097319
Au     19.64947     10.18550     12.75853        -0.014434     -0.023219     -0.040460
Au     12.69720     16.49066     12.64840         0.001031     -0.033284      0.015381
Au     16.53687     12.44447     13.27739         0.010090      0.049557     -0.015220
Au     16.35482     19.94290     12.94096        -0.012036     -0.038900      0.000087
Au     19.83777     14.31573     10.22609        -0.011004     -0.059372     -0.032894
Au     13.65464     20.27061     13.67666         0.054242     -0.062131     -0.026374
Au     12.01697     12.64055     11.32764        -0.024789      0.013518      0.016779
Au     15.43395     16.08143     11.79753         0.036864     -0.003001      0.042407
Au     10.73434     15.18864     11.14668         0.004220     -0.025699      0.044321
Au     17.52630     17.28603     13.33277        -0.058819      0.014012     -0.015444
Au     21.21449     15.09567     12.64633        -0.032695     -0.040642      0.061727
Au     14.45869     11.23286     11.69375         0.004122     -0.041241     -0.029819
Au     14.77498     17.65961     14.17206        -0.054380      0.073238      0.006130
Au     20.49876     17.53917     13.84840        -0.012275      0.000658      0.016294
Au     17.97180     14.64468     12.27554        -0.032404     -0.018190      0.006330
Au     19.56538     16.89950     11.18967         0.006368      0.039811      0.014795
Au     14.28706     18.91550     11.24227         0.056478      0.012722      0.010887
Au     12.35442     19.50462     18.86608         0.012887     -0.018416     -0.068460
Au     12.44287     14.84871     18.17000         0.018640      0.021289      0.038948
Au     17.74000     19.22549     17.77503         0.036565     -0.053619     -0.057714
Au     13.97693     17.53408     16.90629         0.009548      0.032958      0.060865
Au      9.16386     17.62087     15.89727         0.023410     -0.143248     -0.003829
Au     18.47204     19.41259     15.02835        -0.006432      0.019650      0.045718
Au     19.02576     17.22754     19.29429         0.053159      0.012177      0.015947
Au     19.52002     13.23888     19.24476        -0.026011      0.015818     -0.050300
Au     21.65857     15.50565     15.47283        -0.031502     -0.064602      0.022570
Au     20.60139     10.70240     15.34060        -0.010308     -0.005655      0.043238
Au     18.84051     11.14626     17.49078         0.036517      0.052466     -0.049956
Au     18.90525     15.31326     14.93662        -0.035573     -0.012467      0.040150
Au     18.18414     15.15136     17.62591         0.051489     -0.058528     -0.032743
Au     20.91327     13.05106     16.83325         0.081397     -0.032768      0.058961
Au     16.07576     10.66068     16.98406        -0.016373      0.026456      0.034589
Au     20.96483     15.48911     18.19006        -0.051254     -0.000039     -0.040200
Au     10.40680     15.19834     16.16186        -0.032140      0.097600     -0.061634
Au     17.56609     14.96199     20.34361         0.027454     -0.022131      0.043872
Au     15.07922     19.65384     18.42912        -0.060532     -0.020003     -0.006963
Au     10.53446     19.82912     16.81585         0.089671      0.018919      0.027798
Au     10.97132     17.22162     18.02776         0.065534      0.022519     -0.023328
Au     17.42452     13.04076     15.96900         0.027210      0.045940     -0.006022
Au     17.89610      9.99598     14.96079         0.039164      0.059293      0.020721
Au     15.82240     20.04408     15.71178         0.081448      0.016721     -0.031017
Au     15.36275     14.95887     17.16975        -0.061176     -0.001509      0.067095
Au     16.19173     17.21252     19.29803        -0.068656     -0.009157     -0.038033
Au     13.38380     17.05666     19.63477        -0.007109     -0.001634     -0.063763
Au     12.01950     18.10851     14.93652         0.024450      0.048393     -0.025257
Au     13.32005     10.47947     16.38289        -0.004630      0.041719     -0.000305
Au     13.16416     15.40965     15.25887        -0.054633      0.005916     -0.006916
Au     14.02588     12.49482     18.21480         0.005919     -0.031870      0.001744
Au     16.75835     12.69462     18.86555         0.001442     -0.025371     -0.003163
Au     11.84504     12.85194     16.26740         0.038231     -0.043024     -0.107159
Au     14.60396     12.79859     15.39652        -0.064251     -0.004466     -0.005156
Au     14.81090     14.65656     19.86190         0.027084      0.029109     -0.019404
Au     16.83899     17.17037     16.16260         0.002478      0.102214      0.017544
Au     19.90014     17.58756     16.63139         0.011159     -0.015074      0.003784
Au     13.19489     20.47623     16.36579        -0.087138     -0.062160      0.057040
