75
# total energy = -210.86282501 eVAu      8.76418      8.96535      6.00965         0.030083     -0.114940     -0.220675
Au      6.50013      8.26167      9.59997        -0.311106      0.055615     -0.012730
Au      9.39910      8.26715      8.85016         0.135952     -0.083750     -0.186078
Au      7.54034      6.72820      7.43307         0.085263     -0.023285     -0.087991
Au      6.08327      9.05792      6.87882        -0.113380      0.109788      0.106265
Au      9.48643      6.26462      5.47758         0.077364      0.002474      0.081627
Au     16.74594      7.41068      8.38116         0.079553      0.064292     -0.024136
Au     10.92078      8.67305      4.15781         0.087949      0.018961      0.099721
Au     10.02733      5.39857      8.15471        -0.028154     -0.173527     -0.091913
Au     16.24157     10.15207      8.94457         0.254849      0.087392     -0.031978
Au     11.45616      7.85658      6.89286         0.014406     -0.037814     -0.114410
Au     12.11750      5.10924      6.25586        -0.107273      0.023090      0.025329
Au     15.39777      5.13171      9.62025         0.002245     -0.091810      0.049710
Au     11.60416      6.01995      3.68270         0.007256      0.062833      0.142479
Au     14.13074      6.65100      7.58910        -0.017660     -0.034271     -0.144715
Au     11.97958      7.13442      9.60502         0.236460      0.109264      0.023325
Au     13.56259      7.54305      4.93880        -0.054065      0.114823      0.047619
Au     12.69556      4.50342      8.91458         0.013733      0.037288     -0.071887
Au     15.38118      9.01530      6.46635        -0.120944     -0.020765      0.028813
Au     13.31942      9.44135      8.37429         0.170115     -0.264884      0.075760
Au      4.01543     13.17688      8.56971         0.232991     -0.051359      0.190824
Au      6.68307     13.33282      7.67534         0.069798      0.113705     -0.091671
Au      7.50002     11.44910      5.57452        -0.072950      0.114500      0.113341
Au      4.86697     11.52816      6.47292         0.125145     -0.007390      0.150956
Au      7.98676     10.68305      8.30625        -0.294185      0.251073      0.089106
Au      5.08004     10.62984      9.14120        -0.134382     -0.100978      0.002807
Au      8.54467     14.76370      9.25620        -0.051395     -0.097426     -0.051479
Au      9.38913     13.12707      6.95673        -0.226770      0.201250     -0.085148
Au     10.23476     11.26620      4.96708         0.067729     -0.119778      0.033544
Au     12.14496     12.82797      6.42884         0.115958      0.029157     -0.054586
Au     14.70853     11.74380      7.16871         0.029237     -0.035298     -0.018704
Au     11.27629     14.53185      8.56984        -0.019917      0.105956      0.019107
Au     10.75800     10.54605      7.63131         0.001709     -0.217252     -0.267382
Au     12.67246     12.15971      9.09310         0.288864      0.141088     -0.072791
Au      9.92684     12.24590      9.76539        -0.604881      0.249791      0.279902
Au     12.89469     10.24921      5.51503         0.074938      0.001400     -0.169562
Au      7.64697      9.99954     13.92821        -0.083849     -0.004054      0.125897
Au      8.03939      5.95040     10.09795         0.010059     -0.159755      0.079905
Au      8.66398      5.36902     12.80678         0.001917      0.015203     -0.000064
Au      8.51117      9.91860     11.04011        -0.249209      0.486591      0.084965
Au      9.21002      7.63253     14.41776         0.041663     -0.015246      0.025304
Au      7.14109      7.67693     12.31323        -0.062264     -0.025105      0.095826
Au     11.28066      9.85436     10.32207         0.131259     -0.310329      0.258956
Au     17.36393      8.41398     10.96186        -0.099831      0.128903      0.052017
Au     14.70446      7.77071     10.27240        -0.289368      0.259239      0.077997
Au     14.00959      6.61742     14.12284         0.056431     -0.053659     -0.116262
Au     13.35913      5.28814     11.59377         0.087873     -0.199138      0.123365
Au     16.02676      6.16474     12.18205        -0.111314      0.058543      0.085449
Au     10.66457      4.80621     10.88111         0.000047     -0.036621      0.054583
Au     15.39129      8.88705     13.07340         0.084331     -0.114074     -0.151442
Au     11.97322      8.28635     15.09652        -0.033587     -0.070739      0.048135
Au     12.66779      8.20540     12.27734         0.189914      0.030875     -0.265761
Au     10.57351      9.91084     13.12433        -0.016161      0.164539     -0.033668
Au     11.35277      5.86750     13.53463         0.011492     -0.011480     -0.016182
Au      9.94912      7.55768     11.58427         0.160131     -0.075175      0.081355
Au      9.85848      9.99719     15.81110        -0.066631      0.062856     -0.040506
Au      6.33525     12.47229     13.34801        -0.106790     -0.086449      0.011469
Au      9.12182     12.33152     12.57673        -0.037118     -0.070801     -0.250141
Au      5.82139     14.81953     10.03796         0.015887     -0.135054     -0.078203
Au      4.44536     12.48988     11.30619         0.035208     -0.028831     -0.136076
Au      5.73793     10.03590     11.81628        -0.000186      0.037785     -0.097566
Au      8.37875     12.38870     15.28471         0.064535     -0.069639      0.059740
Au      7.12313     12.37730     10.48046         0.263978     -0.132808     -0.040017
Au      7.72844     14.81423     12.07426         0.009624      0.094673     -0.115859
Au     12.48628     14.42054     13.41887        -0.112553     -0.059313     -0.082143
Au     13.25373     14.43244     10.64638        -0.000284     -0.024409      0.084985
Au     14.65226     12.80145     12.65310         0.037696      0.082442     -0.069177
Au     13.98905     10.47205     11.03739         0.157543     -0.371033     -0.009273
Au     13.35710     10.56980     13.96462         0.059399      0.041794      0.138929
Au      9.70363     14.63163     14.07523         0.120300     -0.008904      0.025330
Au     10.48281     14.79766     11.32628         0.045689      0.160133      0.056039
Au     11.25848     12.23921     14.75387        -0.172843      0.119399      0.011351
Au     15.35775     12.73536      9.77259         0.021207     -0.069945      0.037307
Au     11.91056     12.15026     11.88345        -0.162483      0.077108      0.257703
Au     16.63625     11.05159     11.72041        -0.046245     -0.106729     -0.136664
