75
# total energy = -211.14495550 eVAu      8.26738      8.95806      4.72690        -0.009997      0.074016      0.098549
Au      5.64269      8.23583      8.88567        -0.098606     -0.069546     -0.114251
Au      8.60775      7.60258      9.81839         0.147035      0.139681      0.016686
Au      6.71830      5.64705      9.36370         0.038796      0.069840      0.001088
Au      7.36980      7.19592      6.93812         0.006434      0.063702      0.004005
Au      6.57244      9.91580      6.69047         0.158639     -0.062772     -0.061836
Au     14.91529      8.68597      7.73933         0.005980     -0.077919     -0.020876
Au     11.04844      9.77849      5.15544         0.034413     -0.023678      0.010085
Au     15.84350      6.81505      9.60839        -0.064786      0.001022      0.018339
Au     13.22380      8.13017     10.00949        -0.036171     -0.095685      0.037802
Au      9.98560      7.07284      5.65564         0.069651     -0.061846      0.032633
Au     11.54360      4.39787      9.05794         0.062442     -0.003043      0.024192
Au     11.71661      5.11027      6.40300        -0.014410      0.078377      0.047831
Au     13.80395      5.96910      7.96541         0.027430     -0.029347      0.025427
Au     11.12403      7.25948      8.33997         0.065824      0.002602      0.101667
Au     12.81443      7.80544      6.01543        -0.001850     -0.023921      0.007411
Au      9.34607      9.26552      7.47922        -0.024798      0.066380      0.082461
Au      9.11215      5.23539      7.79948         0.087429      0.005616      0.005097
Au      5.15268     13.79592      9.23325         0.012643     -0.030753      0.043080
Au      6.92148     12.61885      7.36669        -0.091165      0.113328     -0.104332
Au      4.86297     10.96197      8.51051        -0.058869      0.120084      0.138170
Au      7.62134     10.39227      9.44428         0.037891      0.070300     -0.007448
Au      7.38331     15.25041      8.23087         0.019339     -0.024503      0.029089
Au      7.89053     13.22195     10.16326        -0.065669     -0.084888      0.042704
Au      8.84595     11.51307      5.62009        -0.015963     -0.051277      0.005276
Au     11.56984     12.39359      6.24007        -0.038771     -0.058723     -0.080927
Au     12.43461     13.07227      8.88291         0.057315      0.100256     -0.042702
Au     10.17838     14.78553      9.06883        -0.132387      0.063727      0.021050
Au      9.81150     11.92191      8.42450        -0.122840      0.005513      0.073581
Au     14.60983     11.35468      8.72158        -0.002368     -0.131602      0.036224
Au     12.07531     10.07250      8.18788        -0.134980     -0.070523      0.119080
Au     13.68420     10.58278      6.06528        -0.026492     -0.070810      0.002921
Au      9.32116     14.06026      6.54363        -0.098330      0.006481      0.042979
Au      7.29712      9.79661     14.57473        -0.017165      0.006857      0.165495
Au      3.89793      9.40303     10.78820        -0.001472      0.084457     -0.007784
Au      4.87503      6.82404     11.22724         0.054853      0.045629     -0.028203
Au      6.73509      8.90943     11.68247        -0.104852      0.059240      0.014359
Au      8.33213      7.16971     14.91400         0.023268      0.055319     -0.054701
Au      5.66119      7.56586     13.93146         0.054780      0.046372     -0.029367
Au      7.44882      6.13773     12.23512        -0.049786     -0.165601      0.060364
Au     10.40253      9.69101     10.40138        -0.014184     -0.038057      0.014471
Au      9.03672      4.55071     10.53774         0.043676     -0.015806     -0.021866
Au     14.16018      7.41556     14.80602        -0.045746      0.048082     -0.064965
Au     15.73072      9.45525     10.54237         0.025648     -0.058225      0.050136
Au     13.73747      5.16721     10.67276         0.058867     -0.067839      0.001678
Au     12.77934      5.56362     13.30680         0.043309     -0.023204     -0.046263
Au     12.38706      8.45132     12.68346         0.004970     -0.054639     -0.108522
Au     15.04184      7.13686     12.22119         0.014398     -0.040593     -0.018045
Au      9.87459      5.34149     13.41939         0.051001     -0.008536      0.001598
Au     14.92151      9.79340     13.26105        -0.001412     -0.023370      0.006914
Au     12.78641      9.71518     15.28678         0.050053     -0.078959     -0.028698
Au     11.01349      6.56310     11.08195         0.162836      0.007005     -0.048513
Au     11.45526      3.73948     11.72831         0.059644      0.038035     -0.027083
Au      9.44936      8.39659     12.71201         0.096845      0.092393     -0.152586
Au     11.21804      7.22235     15.04131         0.072283     -0.009689     -0.050880
Au      9.89213      9.57548     15.61153        -0.006024      0.052640     -0.035855
Au      6.44402     12.45376     13.94785        -0.136782      0.046837     -0.128502
Au      8.41082     11.13685     12.15752         0.022801      0.058574     -0.046615
Au      3.12930     12.11586     10.32664         0.119720      0.011728      0.020655
Au      5.93925     14.53782     11.93833        -0.007246     -0.047234     -0.023257
Au      8.54807     14.15344     12.96025        -0.040742      0.160522      0.067121
Au      3.89394     12.83707     12.95568         0.090100     -0.015807     -0.080145
Au      4.69177     10.15226     13.51947        -0.009555      0.077243     -0.033001
Au      5.75659     11.62805     11.22107        -0.054689      0.045164      0.003012
Au      8.14707     15.97109     10.85784         0.005550     -0.037697     -0.020490
Au     11.21993     13.75248     13.78380        -0.008719     -0.044431      0.027785
Au     13.11443     13.85085     11.55198         0.015861     -0.006825      0.105056
Au     11.52476     12.03129     15.92994        -0.068481      0.019506     -0.101822
Au     12.88909     10.84011     10.98557        -0.164980     -0.099140      0.015238
Au     10.81193     15.46693     11.67139        -0.105552     -0.002504      0.015729
Au     11.02398     10.84852     13.24929        -0.070088      0.022639     -0.078165
Au     15.25777     12.06722     11.47494        -0.014382     -0.058674      0.044443
Au      8.96065     12.16910     14.90379         0.174894     -0.047919     -0.004625
Au     10.58234     12.64909     11.07467        -0.143366     -0.014277      0.004403
Au     13.57253     12.15974     13.83611         0.027057     -0.029304     -0.013560
