75
# total energy = -211.31320212 eVAu      8.66834      8.93859      5.85178         0.004396      0.010314      0.026231
Au      6.38867      8.18806      9.64834        -0.011104     -0.005340      0.034855
Au      9.40356      8.28267      8.81652         0.025910      0.009061     -0.002776
Au      7.55737      6.73504      7.45821         0.008266     -0.017297     -0.002554
Au      6.07369      9.05948      6.98447        -0.021808     -0.001890     -0.000188
Au      9.52605      6.25313      5.56014        -0.026024      0.013152     -0.001845
Au     16.74096      7.44327      8.38402         0.023152     -0.008742      0.005591
Au     10.98934      8.70797      4.21278        -0.015322      0.017621      0.006837
Au      9.99100      5.27452      8.19346         0.016411      0.013881      0.015460
Au     16.48173     10.23924      8.84297        -0.021066     -0.010631      0.012423
Au     11.48729      7.83541      6.88673        -0.007210      0.002257     -0.003488
Au     12.06021      5.05488      6.30707         0.027919     -0.031038      0.040556
Au     15.37670      5.13575      9.63421         0.040156     -0.009253      0.010123
Au     11.65139      6.04734      3.77220         0.019154     -0.005048      0.017218
Au     14.19391      6.56367      7.49106        -0.019252      0.011276     -0.020795
Au     12.01725      7.12191      9.57765        -0.044582     -0.015717      0.016884
Au     13.58978      7.63755      4.92622         0.048858      0.034770      0.028505
Au     12.71751      4.48952      8.93006        -0.016532     -0.010380     -0.015088
Au     15.40024      9.02559      6.48888        -0.000394      0.002558     -0.029580
Au     13.33108      9.37898      8.35993        -0.009498      0.026293     -0.013724
Au      4.14251     13.14927      8.65448        -0.017482      0.038521      0.042041
Au      6.70727     13.52828      7.54924         0.064542      0.011349      0.012980
Au      7.54305     11.51997      5.64443         0.005852      0.024148     -0.003777
Au      4.95385     11.54775      6.59201         0.032736     -0.036594     -0.013046
Au      7.90199     10.74636      8.33940        -0.017968      0.002548     -0.015085
Au      4.86946     10.48411      9.19193         0.014592     -0.020359      0.013913
Au      8.56600     14.80841      9.20502        -0.018549      0.024442     -0.010301
Au      9.40649     13.25875      6.89288        -0.008516      0.013442      0.000228
Au     10.25844     11.26574      5.00509         0.025844      0.017468     -0.023508
Au     12.17093     12.82513      6.46532         0.012957      0.016959     -0.021276
Au     14.73050     11.71144      7.17631         0.009004      0.009841      0.024391
Au     11.29159     14.52586      8.58534         0.029143     -0.002825      0.019345
Au     10.72348     10.51318      7.61823        -0.009183     -0.047690      0.022531
Au     12.66482     12.11265      9.11359         0.041552      0.055067     -0.004351
Au      9.83100     12.27612      9.78547         0.018873     -0.015452      0.000583
Au     12.97436     10.33722      5.43663        -0.008114     -0.018366      0.009704
Au      7.57601      9.95842     13.99644         0.009787     -0.017241     -0.007519
Au      8.06269      5.94843     10.12202        -0.017325     -0.023111      0.018940
Au      8.67846      5.38299     12.81439        -0.002064     -0.022873     -0.003654
Au      8.44473      9.98136     11.03972         0.004502     -0.027511      0.009702
Au      9.22583      7.63752     14.40163         0.024009      0.008895      0.037404
Au      7.15098      7.67677     12.33913        -0.015900      0.009014     -0.004792
Au     11.28224      9.82939     10.33538        -0.059051      0.001504     -0.028154
Au     17.32684      8.42822     10.95074        -0.004501      0.001647     -0.009662
Au     14.66960      7.78562     10.24987         0.017317     -0.019679     -0.007259
Au     14.01399      6.58159     14.07924        -0.046993      0.022176     -0.012773
Au     13.40228      5.07210     11.66285        -0.011097      0.033533      0.013796
Au     15.99812      6.19137     12.17316         0.012095     -0.004071     -0.026210
Au     10.69376      4.80033     10.89588         0.016122     -0.015022      0.012362
Au     15.39582      8.88375     13.06533         0.009064      0.004770     -0.012687
Au     11.96972      8.29595     15.04322        -0.004967     -0.020539     -0.014938
Au     12.70091      8.19669     12.24173        -0.033124     -0.018673      0.007557
Au     10.54368      9.94868     13.11529        -0.003557      0.006878     -0.033128
Au     11.36907      5.84443     13.49791         0.052239      0.016398      0.021494
Au      9.97810      7.57928     11.57913        -0.006249      0.018648     -0.037234
Au      9.83298     10.01143     15.79518         0.000021     -0.026059     -0.021272
Au      6.27081     12.38089     13.37050        -0.009482      0.003253      0.019478
Au      9.05687     12.36278     12.54997        -0.009144     -0.020992     -0.042654
Au      5.86156     14.83979     10.01078         0.018203      0.027102     -0.016989
Au      4.43815     12.43760     11.30924        -0.027824     -0.011829      0.009174
Au      5.69018      9.98980     11.81518        -0.003599     -0.031079      0.007982
Au      8.35055     12.37924     15.26933        -0.007320      0.006022      0.020666
Au      7.09268     12.39872     10.46977        -0.033532      0.026239      0.008920
Au      7.78557     14.90266     11.99467         0.000396      0.021748     -0.004417
Au     12.45044     14.40526     13.39884        -0.000307      0.013996      0.005795
Au     13.24231     14.40073     10.65725         0.029135     -0.034916     -0.011010
Au     14.61584     12.76122     12.60664         0.019108     -0.005637     -0.023637
Au     14.00586     10.41694     11.02687        -0.030530      0.022617     -0.021871
Au     13.37416     10.60206     14.04393        -0.012985     -0.004709     -0.004273
Au      9.69253     14.63830     14.05283         0.015380      0.012428      0.008544
Au     10.51814     14.93011     11.31513         0.017914     -0.012180     -0.012468
Au     11.19934     12.26956     14.76877        -0.016757      0.016544     -0.005994
Au     15.36608     12.70177      9.74805        -0.036055     -0.005457      0.023605
Au     11.85623     12.15022     11.90918        -0.036613     -0.056562     -0.033165
Au     16.63933     11.02774     11.64079        -0.013029      0.006383     -0.008678
