75
# total energy = -211.09017848 eVAu     14.98977     16.97432      9.19151        -0.049504      0.016355     -0.007486
Au     16.04591     15.05328     14.39342         0.069662      0.054624     -0.079640
Au     11.55629     18.96852     12.06760         0.045174      0.047067     -0.009446
Au     21.11600     12.39985     11.74020         0.029363     -0.006705     -0.028765
Au     17.43450     15.66572      9.57890        -0.013091     -0.067201     -0.000420
Au     17.01393     18.29649     10.62845        -0.040611      0.040687      0.012787
Au     22.03150     13.04617     14.32840         0.082511     -0.006895      0.016820
Au     13.47162     14.73092     10.08972         0.044084     -0.014138      0.008286
Au     15.08700     10.04931     14.30984         0.030576     -0.004340      0.006262
Au     19.28422     12.74826     13.87606        -0.074161      0.034759     -0.039246
Au     12.29853     17.31809      9.94904        -0.001409      0.038105     -0.009049
Au     18.98139     19.44772     12.26797         0.062419      0.059966     -0.007316
Au     15.91212     13.33117     10.44185        -0.007176      0.004054      0.012975
Au     16.91629      9.90884     12.19447         0.024643     -0.002478     -0.015298
Au     11.04108     13.95827     13.65230         0.040852     -0.017352     -0.054848
Au     18.36928     12.02229     10.98684        -0.077592      0.019888     -0.031265
Au      9.96720     16.60708     13.41603        -0.021152      0.002468      0.063439
Au      9.96316     19.64793     14.12540         0.010091      0.023269      0.046101
Au     14.02153     13.82523     12.78646        -0.059309      0.072718      0.018039
Au     12.56919     11.46360     13.79314        -0.037718      0.036229      0.049989
Au     19.63975     10.17210     12.77589         0.005575     -0.044964     -0.020791
Au     12.71979     16.41667     12.62853         0.087037     -0.011715      0.047329
Au     16.52689     12.43816     13.25885         0.015907     -0.030452     -0.000022
Au     16.31569     19.90515     13.00719        -0.031918      0.030616     -0.020702
Au     19.81706     14.32654     10.19512         0.037410     -0.014879     -0.013377
Au     13.61117     20.19443     13.74812         0.013331      0.014071     -0.114961
Au     12.05728     12.59530     11.26746        -0.036978      0.025242      0.025127
Au     15.46136     16.03637     11.75459        -0.043016      0.037014      0.077489
Au     10.76217     15.14164     11.10252        -0.028333     -0.015049      0.019028
Au     17.51884     17.30223     13.32394        -0.025532     -0.136364      0.010700
Au     21.11483     15.12286     12.66548         0.051002     -0.006922     -0.021019
Au     14.44650     11.13733     11.66342         0.038923      0.046287     -0.035815
Au     14.77212     17.64490     14.17310        -0.000092     -0.003990     -0.042815
Au     20.46438     17.60272     13.83337         0.005880     -0.014473      0.043056
Au     17.96738     14.65249     12.24006        -0.007365      0.024625      0.051279
Au     19.54249     16.94160     11.16342         0.031767     -0.035876      0.000817
Au     14.26865     18.85302     11.30177         0.015849     -0.009983     -0.000949
Au     12.35691     19.59085     18.98556         0.018002     -0.017909     -0.062975
Au     12.52573     14.89683     18.15450        -0.009466      0.016187      0.034923
Au     17.76440     19.19686     17.78959         0.018403      0.006567     -0.028597
Au     14.06217     17.49962     16.92499         0.008695     -0.014369     -0.019666
Au      9.18235     17.63783     15.89978         0.065647     -0.116331      0.005140
Au     18.48490     19.43718     15.02732        -0.013427     -0.010126      0.042966
Au     19.08903     17.25957     19.37233        -0.030655      0.002368     -0.028068
Au     19.47847     13.22475     19.29524         0.015518     -0.030045     -0.000553
Au     21.61859     15.59837     15.48012         0.056373      0.006412      0.008746
Au     20.53969     10.74111     15.37368         0.045775     -0.050690      0.040102
Au     18.73699     11.13908     17.52929         0.039498     -0.028197      0.028457
Au     18.89135     15.31711     14.93391        -0.047513      0.064376     -0.015029
Au     18.23036     15.17057     17.67747        -0.073692      0.006563     -0.051446
Au     20.47788     13.24771     16.66827         0.122777     -0.056117      0.050083
Au     15.99849     10.66774     17.01543         0.003692      0.029896      0.014128
Au     20.97714     15.53876     18.23722         0.033552     -0.000781     -0.017157
Au     10.50957     15.26432     16.08301        -0.155166      0.191809      0.045787
Au     17.60972     14.95710     20.42947        -0.039627      0.009194     -0.039537
Au     15.09042     19.60875     18.52622        -0.037517      0.024262     -0.023292
Au     10.53977     19.86312     16.88785         0.067516     -0.010805     -0.076170
Au     11.12886     17.28805     17.95140        -0.075807     -0.025387     -0.002348
Au     17.43159     13.06460     15.97355        -0.046312     -0.003991      0.034271
Au     17.83371     10.05574     14.97886         0.025155     -0.040015     -0.011478
Au     15.84668     20.01184     15.78850         0.021032     -0.005030     -0.034555
Au     15.42380     14.90733     17.15861        -0.004018      0.051549      0.069128
Au     16.24967     17.11589     19.15350        -0.005858      0.004998      0.042078
Au     13.45458     17.12738     19.64849        -0.020656     -0.019796      0.002168
Au     12.04111     18.03078     14.99805        -0.071006      0.036414     -0.009279
Au     13.25664     10.49110     16.37341         0.002364      0.029442      0.018911
Au     13.24094     15.37566     15.23558        -0.039528      0.024061     -0.032371
Au     14.00702     12.49480     18.22184         0.019765     -0.019739     -0.022539
Au     16.71854     12.67489     18.94801         0.016186      0.004631     -0.040016
Au     11.87775     12.91919     16.21726         0.041639     -0.179339      0.006021
Au     14.61834     12.78378     15.39398        -0.001860     -0.059106     -0.005149
Au     14.84219     14.68003     19.86145        -0.002649     -0.014185      0.007018
Au     16.88232     17.15208     16.13468        -0.006759      0.019313      0.048267
Au     19.92995     17.64716     16.66060        -0.010432     -0.031692     -0.019171
Au     13.22050     20.39317     16.43758        -0.116746      0.021339      0.084910
