75
# total energy = -211.31772482 eVAu      7.95648     10.18738      4.34505         0.017219      0.042562      0.024441
Au      5.11958      8.20005      8.35052        -0.001233      0.036569      0.025538
Au      7.57552      9.29606      8.97724        -0.032284     -0.008934     -0.027665
Au      7.26487      6.39807      8.09922         0.008111     -0.023719      0.004383
Au      8.48563      8.37202      6.40538        -0.016467     -0.028799      0.016542
Au      6.41440     10.51033      6.66678        -0.042268     -0.019639      0.052960
Au     13.94194      6.65748      6.02836        -0.007074     -0.007488      0.012487
Au     12.66590      8.89406      4.90298         0.004573      0.025098      0.041086
Au     15.65789      7.00293      8.29436         0.012722     -0.005626     -0.007992
Au     12.79723      7.34355      8.50475        -0.035874      0.033086     -0.015576
Au     10.05562      8.43732      4.06990         0.009158     -0.011826     -0.000842
Au     12.42498      4.72169      7.49945         0.004968      0.010281     -0.008799
Au     13.06095      9.87358      9.62681        -0.020457     -0.004204     -0.008113
Au     11.00131      6.79547      6.11829         0.005245      0.003715     -0.018401
Au     14.17205      5.10000      9.69552         0.012767      0.011334      0.018837
Au      9.91496      7.46696      8.73277         0.018064     -0.013481      0.003399
Au     14.54967      9.28648      7.00656        -0.003463     -0.003815      0.014447
Au     15.86327      9.48140      9.55781        -0.000619      0.000651     -0.009926
Au      9.63781      4.86809      7.80309        -0.028189      0.001553     -0.002013
Au     11.23721      9.50341      7.25902         0.017977      0.035495     -0.002662
Au      4.19553     13.56395      8.52724         0.005720     -0.000475     -0.011042
Au      6.19272     13.41093      6.62119        -0.008027      0.002299      0.036152
Au      8.37382     12.78323      5.14060         0.061454      0.023925      0.003446
Au      4.22287     10.78830      8.56035         0.018311     -0.007667      0.007795
Au      6.48273     15.05751      8.92112        -0.029736     -0.018474     -0.027378
Au      6.69965     12.10182      9.13968        -0.027268      0.000659     -0.006393
Au      8.69217     14.61127      7.33042         0.033134      0.005413     -0.004181
Au     10.62810     11.07336      4.68238        -0.013122      0.025667     -0.008415
Au     13.52235     13.87122      9.95665        -0.000165     -0.003764      0.025471
Au     10.92531     13.53502      5.98642        -0.002657      0.023566     -0.009822
Au     13.42175     13.98854      7.16319         0.028982      0.002755     -0.003613
Au     11.18519     14.97505      8.54073        -0.014410      0.002242      0.012420
Au      9.00856     11.33051      7.47199         0.019704      0.007134      0.003646
Au     11.62185     12.12655      8.37902         0.001725     -0.012893     -0.001210
Au     14.72470     11.78031      8.29437         0.001309     -0.012010      0.003160
Au     13.08979     11.48947      5.92554         0.010075      0.001058      0.002281
Au      6.55450      8.59402     13.09272         0.013338     -0.033059     -0.023707
Au      8.58379      5.25081     10.36531        -0.011456      0.009831      0.021308
Au      5.04261      9.57201     10.92811         0.006457     -0.008018      0.030627
Au      7.55953      6.00449     12.85782         0.011274     -0.007723      0.001921
Au      9.14990      7.88308     14.24336         0.002498     -0.011783     -0.005048
Au      6.14963      6.96195     10.63231         0.000123      0.001401      0.030202
Au      8.76018      8.05175     11.28570        -0.032944     -0.054373      0.042926
Au     10.17828     10.10838      9.85252         0.024337      0.036812     -0.051576
Au     14.76351      7.51777     13.69997         0.003059      0.013639     -0.000620
Au     15.59775      7.04950     11.08930         0.011296     -0.015033     -0.021989
Au     13.21387      5.77821     12.19858         0.002153     -0.010834      0.017950
Au     13.33306      9.70428     12.44822        -0.018475     -0.030071     -0.008491
Au     16.20750      9.49180     12.30628        -0.004970     -0.004841      0.021105
Au     10.36088      5.78459     12.57893        -0.003625     -0.010729      0.023262
Au     13.59796      9.53102     15.29641         0.014461      0.011095     -0.014272
Au     11.67772      7.84442     11.02928         0.030320      0.017527     -0.024149
Au     11.41006      4.95305     10.11141        -0.019175      0.000984      0.020135
Au     10.48611      9.92941     12.68241        -0.018469      0.018311      0.029072
Au     11.95758      7.60158     14.06094        -0.002935     -0.000455     -0.014191
Au     10.83342      9.88965     15.44913        -0.008682     -0.015538     -0.027199
Au      7.37501     13.30035     14.35575        -0.014867     -0.005663     -0.009931
Au      8.95347     15.34249     12.89225         0.007750     -0.007988     -0.002949
Au      4.91411     13.85371     13.21876         0.005908     -0.003547     -0.003026
Au      8.90716     15.64591     10.06854         0.020049     -0.005973      0.006858
Au      5.67525     11.19365     13.21690        -0.017912      0.027247     -0.031765
Au      8.15157     10.51940     14.46987        -0.001595      0.009013     -0.011444
Au      4.36274     12.31091     10.98540         0.031845     -0.022301     -0.004591
Au      7.84528     10.80867     11.41052         0.015557      0.001481      0.011266
Au      7.03288     13.80133     11.43789        -0.006368     -0.016976      0.006347
Au     11.31777     14.43077     14.18751        -0.024242     -0.000675      0.009173
Au      9.59520     12.61680     12.75574        -0.000728     -0.014206     -0.021759
Au     12.60159     12.15566     15.18943        -0.014220     -0.020892     -0.057075
Au     14.99155     11.75729     11.11537        -0.000323      0.000265     -0.011982
Au     15.03019     11.51736     13.92828        -0.021770     -0.006184      0.014198
Au     11.31935     14.86029     11.40042        -0.010574     -0.007569      0.012395
Au      9.81582     12.49476     15.55868         0.018507      0.051374     -0.015766
Au      9.33279     12.87268      9.93549         0.012411     -0.028448     -0.010941
Au     11.89513     11.91724     11.28783        -0.006871      0.028468     -0.036141
Au     13.56154     13.60303     12.80017         0.000954      0.003181     -0.024581
