75
# total energy = -211.32646880 eVAu      8.66080      8.94159      5.84860         0.013817      0.012146      0.038029
Au      6.38073      8.18405      9.65807         0.003262     -0.023539      0.004628
Au      9.40128      8.28283      8.81615        -0.001295     -0.004663     -0.032938
Au      7.55471      6.72774      7.46231         0.007813      0.013330      0.016364
Au      6.07157      9.05379      6.99278        -0.011246     -0.022177      0.005476
Au      9.52417      6.25713      5.56614         0.014634      0.004917     -0.011826
Au     16.74255      7.43873      8.38252         0.017547      0.003997     -0.004172
Au     10.98771      8.71367      4.21990         0.004169     -0.018664      0.000443
Au      9.99161      5.27514      8.19925         0.019773      0.011616      0.011612
Au     16.48797     10.24102      8.84080        -0.017464     -0.029179      0.012839
Au     11.49074      7.83254      6.88426        -0.007193     -0.010638      0.001483
Au     12.06667      5.04285      6.31863        -0.013325     -0.004828     -0.003304
Au     15.38377      5.13418      9.63103         0.006137     -0.010301      0.004650
Au     11.66271      6.04740      3.78552         0.013045      0.025975      0.057104
Au     14.19476      6.56108      7.48440        -0.002169      0.008075      0.016627
Au     12.01347      7.11642      9.57610        -0.030258     -0.001715      0.011240
Au     13.60486      7.64756      4.92889        -0.006994      0.018863     -0.006185
Au     12.71926      4.48136      8.93410         0.007510      0.004687      0.013125
Au     15.40903      9.03082      6.48779         0.010880      0.005144     -0.008479
Au     13.33237      9.37651      8.35344        -0.031813      0.032142      0.002815
Au      4.14993     13.15338      8.66656         0.023009     -0.001387      0.000134
Au      6.71631     13.54285      7.54535         0.006144     -0.012728      0.026043
Au      7.55264     11.52969      5.64694         0.005657      0.015392     -0.021962
Au      4.96788     11.54325      6.60116         0.020513      0.013181      0.029568
Au      7.89339     10.75119      8.33828        -0.008838     -0.001067      0.020961
Au      4.85737     10.47383      9.19895         0.017897      0.018587      0.007908
Au      8.57203     14.81976      9.20136         0.002008      0.014307     -0.004086
Au      9.40998     13.26846      6.89144         0.028277      0.015095      0.002564
Au     10.26686     11.27557      5.00084         0.002825      0.011109     -0.002470
Au     12.17515     12.82791      6.46544         0.012047      0.022429     -0.013383
Au     14.73763     11.71323      7.17944        -0.015247      0.007751      0.007440
Au     11.30178     14.52793      8.58479         0.003392     -0.003868      0.019959
Au     10.71759     10.51070      7.61500        -0.000568     -0.028391      0.012475
Au     12.66512     12.11395      9.11234         0.020728      0.022032     -0.017113
Au      9.82519     12.27732      9.78293         0.004035     -0.008250     -0.020793
Au     12.97468     10.34202      5.43931         0.009436     -0.021372      0.010310
Au      7.57619      9.95409     13.99618         0.010367     -0.001413     -0.001118
Au      8.06043      5.94542     10.12597        -0.018315     -0.027969      0.015550
Au      8.68106      5.37646     12.81718         0.010087      0.003483     -0.001852
Au      8.43911      9.97858     11.03959        -0.030463      0.008602     -0.013756
Au      9.22928      7.63451     14.40652         0.019075      0.001898      0.002908
Au      7.14812      7.67044     12.34295         0.000028     -0.000557      0.012275
Au     11.27222      9.82750     10.32824        -0.010549     -0.003036     -0.030058
Au     17.32318      8.42491     10.94867         0.009333      0.017692     -0.015133
Au     14.66755      7.78300     10.24298        -0.006553     -0.012094      0.001623
Au     14.01135      6.58354     14.07495         0.001881      0.024172     -0.017014
Au     13.40513      5.06940     11.66547         0.014026      0.033292     -0.009224
Au     16.00260      6.19557     12.16549        -0.015252     -0.013784      0.005735
Au     10.69870      4.79352     10.90174         0.003409     -0.001862      0.005599
Au     15.39483      8.88603     13.06155        -0.014417      0.010450     -0.014498
Au     11.97004      8.30003     15.03776        -0.012668     -0.020260     -0.007681
Au     12.69682      8.19381     12.23762        -0.032975      0.003876     -0.020052
Au     10.53759      9.95104     13.10798        -0.010466     -0.021491      0.003167
Au     11.37454      5.84294     13.50043         0.004288      0.018151      0.011083
Au      9.97085      7.57635     11.57514         0.016588      0.008723     -0.003923
Au      9.83261     10.01091     15.79400        -0.000505     -0.013692     -0.038815
Au      6.26454     12.37568     13.37185         0.006326     -0.007956      0.030306
Au      9.04744     12.36472     12.54323        -0.012634     -0.009441     -0.009535
Au      5.86756     14.85390     10.00791         0.003909      0.021830     -0.032399
Au      4.42879     12.43001     11.31653        -0.014649     -0.025139      0.003116
Au      5.68374      9.98019     11.82114        -0.001472     -0.000441      0.004539
Au      8.34866     12.38200     15.27003        -0.013450     -0.013341     -0.006064
Au      7.08182     12.40762     10.47058        -0.012749     -0.017691     -0.005425
Au      7.78750     14.91074     11.98697         0.036004      0.021018      0.021207
Au     12.44922     14.40509     13.39864         0.000261     -0.017815     -0.023681
Au     13.25186     14.39710     10.65672        -0.001805     -0.023911      0.006392
Au     14.61094     12.75417     12.60399         0.010970     -0.001646     -0.009729
Au     14.00100     10.41631     11.02027        -0.038464     -0.007821     -0.010603
Au     13.36776     10.60412     14.04574        -0.002989     -0.006203     -0.019360
Au      9.69192     14.63822     14.05152         0.001126      0.011295     -0.017127
Au     10.52496     14.93056     11.31104         0.007306     -0.014306     -0.000347
Au     11.19186     12.27317     14.76676        -0.006653      0.001982     -0.012288
Au     15.36494     12.70222      9.74870        -0.016422     -0.001742      0.015110
Au     11.84562     12.14453     11.90337         0.000379      0.001075     -0.013745
Au     16.63763     11.02668     11.63176        -0.010061     -0.001941      0.007730
