75
# total energy = -211.01910279 eVAu     14.98100     16.97268      9.17850         0.041350     -0.015062      0.071465
Au     16.05534     15.05763     14.38047        -0.007452     -0.056099      0.066462
Au     11.55062     18.94504     12.07702         0.016117      0.047717      0.010601
Au     21.12226     12.39855     11.73108         0.032726     -0.009254      0.017575
Au     17.43366     15.66505      9.54884        -0.038108     -0.020780      0.072000
Au     17.01761     18.31433     10.61082        -0.029729     -0.024648      0.081450
Au     22.04895     13.04189     14.34210        -0.008119     -0.001092     -0.024364
Au     13.47297     14.72542     10.08478         0.076789     -0.021420      0.027852
Au     15.07002     10.04275     14.30022         0.014005      0.023448      0.063656
Au     19.28685     12.73845     13.86268        -0.030589      0.036119      0.021291
Au     12.29872     17.30855      9.93948        -0.030047      0.052439      0.007307
Au     18.99464     19.48277     12.25719        -0.060904     -0.137048      0.068101
Au     15.91487     13.33686     10.45122        -0.005711      0.007097      0.021755
Au     16.91444      9.91047     12.18967         0.003405     -0.033853     -0.020398
Au     11.07065     13.96124     13.62419        -0.007436      0.015887      0.101040
Au     18.36763     12.02364     10.99990        -0.074088      0.040812     -0.054824
Au      9.96962     16.63321     13.41089         0.028728     -0.077311     -0.032239
Au      9.95470     19.63604     14.14479         0.025937      0.076803     -0.114085
Au     14.02648     13.81245     12.78835        -0.056570      0.022719     -0.015671
Au     12.55088     11.44554     13.79370         0.029893      0.071839      0.010387
Au     19.64704     10.16084     12.76760         0.022478     -0.017444      0.027331
Au     12.73382     16.39616     12.61828         0.015213      0.024706      0.054939
Au     16.52031     12.42904     13.26146         0.004548      0.049315     -0.006037
Au     16.31605     19.93046     13.01012         0.010800     -0.105611     -0.010345
Au     19.80733     14.32399     10.18667         0.027253     -0.006499     -0.017722
Au     13.60421     20.18797     13.74479         0.022858     -0.006192      0.008051
Au     12.05270     12.58530     11.25212         0.041564      0.007813      0.067548
Au     15.47603     16.03685     11.76011        -0.070453      0.031939     -0.077210
Au     10.76509     15.13698     11.08799        -0.046660      0.020534      0.036626
Au     17.52549     17.30482     13.31938         0.037980      0.099635     -0.011620
Au     21.05226     15.10125     12.69035         0.110826      0.045035     -0.037785
Au     14.44059     11.12159     11.63982         0.006405      0.082479      0.034069
Au     14.76489     17.64513     14.17161         0.068168      0.046347     -0.033874
Au     20.47354     17.62107     13.83447        -0.075845     -0.014194     -0.007137
Au     17.96986     14.66354     12.23937        -0.022439     -0.037962      0.002857
Au     19.53702     16.94851     11.14375         0.003064      0.030852      0.076240
Au     14.26815     18.81380     11.31845         0.044421      0.053788      0.003824
Au     12.36054     19.59489     18.99548         0.029661     -0.027926      0.048693
Au     12.55009     14.92535     18.15025        -0.017376     -0.092848     -0.043430
Au     17.78147     19.22088     17.80000        -0.021500     -0.080178     -0.026561
Au     14.07202     17.49494     16.93082         0.060201     -0.003627      0.048071
Au      9.17600     17.63286     15.90214        -0.097912     -0.005738      0.029300
Au     18.49299     19.46354     15.03647        -0.004099     -0.099654     -0.059608
Au     19.09383     17.26578     19.39948        -0.040993     -0.018346     -0.076700
Au     19.48319     13.22271     19.30317         0.011251     -0.000188     -0.021065
Au     21.62265     15.61336     15.48358         0.029152     -0.025153      0.002356
Au     20.55680     10.73549     15.38761        -0.013653     -0.005026     -0.024421
Au     18.72946     11.13285     17.53961         0.039455     -0.013298      0.008588
Au     18.88994     15.32480     14.92958        -0.019846      0.024479     -0.006181
Au     18.22949     15.17361     17.68507        -0.029562      0.019573     -0.000026
Au     20.40864     13.27505     16.63131         0.147398     -0.051056      0.091916
Au     15.98495     10.66016     17.02958        -0.011489      0.040466     -0.044371
Au     20.98373     15.53602     18.24664        -0.003710     -0.010904     -0.017982
Au     10.51608     15.30401     16.05348         0.073138     -0.210092      0.028646
Au     17.61612     14.96565     20.45399        -0.030546     -0.000084     -0.078561
Au     15.10220     19.61441     18.56022        -0.041213     -0.028953     -0.088948
Au     10.54751     19.86249     16.87258        -0.081814      0.076490      0.025188
Au     11.16550     17.31622     17.90784        -0.048919     -0.111600      0.135631
Au     17.42494     13.06003     15.97585        -0.051718      0.017190     -0.014425
Au     17.82973     10.12436     14.96456        -0.001424     -0.115582      0.030301
Au     15.84800     19.98613     15.80134        -0.097010      0.021217     -0.021279
Au     15.43042     14.89636     17.17200        -0.053519      0.039535     -0.005754
Au     16.25932     17.08995     19.10493        -0.015798      0.037500      0.062495
Au     13.47421     17.13633     19.68104        -0.032676      0.003767     -0.078574
Au     12.03387     18.01413     15.01044        -0.002864      0.038744     -0.071225
Au     13.22929     10.47674     16.38759         0.093398      0.058672     -0.040573
Au     13.26009     15.37555     15.22823        -0.067854     -0.096402      0.029480
Au     13.99609     12.47696     18.24193         0.031799      0.075765     -0.069827
Au     16.72726     12.70565     18.93015        -0.043032     -0.037732     -0.000365
Au     11.85988     12.90297     16.22880         0.053069      0.102135     -0.038521
Au     14.61176     12.76230     15.40004        -0.014672      0.034628      0.023998
Au     14.83776     14.67205     19.89394         0.017999     -0.004248     -0.095891
Au     16.89616     17.16072     16.13474        -0.050528      0.019814      0.037899
Au     19.90633     17.62291     16.66928         0.003613      0.045417     -0.040283
Au     13.20039     20.35917     16.46105         0.183212      0.080387     -0.127107
