75
# total energy = -211.32493630 eVAu      7.95783     10.19834      4.35783         0.024122      0.035484      0.041771
Au      5.11552      8.19499      8.35833        -0.000885      0.008530      0.023747
Au      7.57064      9.29341      8.97452         0.000398     -0.011164      0.003665
Au      7.26276      6.39218      8.10074         0.000307     -0.012763      0.022580
Au      8.47636      8.36490      6.40622        -0.003271     -0.018940     -0.004697
Au      6.40262     10.50718      6.67483        -0.022621     -0.015496      0.026817
Au     13.93852      6.65841      6.02971        -0.002874     -0.005187      0.016410
Au     12.66708      8.89656      4.90543         0.001173      0.028632      0.029344
Au     15.65507      7.00225      8.29509         0.008007     -0.001713     -0.012049
Au     12.79245      7.34896      8.50457        -0.016258      0.003042     -0.032927
Au     10.05655      8.44502      4.07225        -0.005842     -0.004145      0.016242
Au     12.42264      4.72515      7.50031        -0.002961      0.014271      0.007345
Au     13.05938      9.87399      9.62597        -0.000917      0.016347      0.000219
Au     10.99776      6.79807      6.11811         0.003871      0.002273     -0.018321
Au     14.16858      5.10368      9.69917        -0.003258      0.006591      0.009900
Au      9.91468      7.46820      8.73241        -0.001042     -0.014081      0.011865
Au     14.55002      9.28907      7.00580         0.003127     -0.019873      0.016361
Au     15.86413      9.48090      9.55578        -0.008642      0.002164      0.009376
Au      9.63356      4.86799      7.80266        -0.011774      0.006689      0.010116
Au     11.23683      9.50676      7.25693         0.009126      0.023785     -0.014312
Au      4.20453     13.55716      8.52244        -0.014760     -0.009431     -0.003762
Au      6.20243     13.41285      6.61856         0.014755     -0.008446      0.007987
Au      8.38916     12.79670      5.13439         0.028444      0.023224      0.018014
Au      4.22044     10.77961      8.56741         0.003317      0.011784      0.016435
Au      6.48430     15.05822      8.91524         0.009183     -0.008895     -0.010108
Au      6.69723     12.10087      9.13656        -0.016727      0.000205      0.003764
Au      8.69857     14.62241      7.32472         0.029887      0.003370      0.009850
Au     10.63380     11.08187      4.67558        -0.001767      0.019001     -0.001183
Au     13.52341     13.87182      9.95593        -0.002305      0.004523      0.018611
Au     10.93316     13.54360      5.98201         0.020575      0.028784      0.003629
Au     13.42906     13.99020      7.16411         0.005137     -0.001200      0.000910
Au     11.18815     14.97590      8.54343        -0.004229     -0.007360     -0.000530
Au      9.00605     11.32600      7.46531        -0.008430      0.009225     -0.014064
Au     11.61755     12.12545      8.37261         0.023053      0.020223     -0.012570
Au     14.72648     11.77995      8.29431         0.001421     -0.006788      0.007703
Au     13.09599     11.49282      5.92450        -0.005623      0.006227     -0.006656
Au      6.55638      8.58748     13.09354         0.004139     -0.001514     -0.006983
Au      8.58379      5.24888     10.36914        -0.009923      0.006412      0.010488
Au      5.03613      9.56283     10.93721         0.004232      0.004596      0.022556
Au      7.56327      6.00016     12.86353        -0.000987     -0.021962      0.001922
Au      9.15245      7.88169     14.24242        -0.003656     -0.002660      0.004466
Au      6.14833      6.95749     10.63891        -0.002802     -0.011535      0.014607
Au      8.75520      8.04643     11.28622         0.004722     -0.011209      0.010988
Au     10.17887     10.11160      9.84818        -0.009045     -0.012416     -0.016678
Au     14.76379      7.51932     13.70211         0.001625      0.004573     -0.006338
Au     15.59798      7.04864     11.09015         0.010921     -0.002847     -0.014481
Au     13.21331      5.77666     12.20267        -0.005141      0.000958      0.012318
Au     13.33034      9.70288     12.44735        -0.018495     -0.014289     -0.014610
Au     16.20432      9.49261     12.30767        -0.004877     -0.001898      0.003683
Au     10.36164      5.78461     12.58381         0.007865     -0.017462      0.004538
Au     13.59914      9.53228     15.29782         0.005100      0.004339     -0.008970
Au     11.67687      7.84444     11.02716         0.011967      0.007396     -0.003918
Au     11.40662      4.94413     10.11557        -0.009273      0.015834      0.013214
Au     10.48351      9.93005     12.68217        -0.006669      0.016368     -0.006753
Au     11.95776      7.60377     14.06016         0.007038     -0.001280     -0.010307
Au     10.83423      9.88997     15.44769        -0.009627     -0.002653     -0.024097
Au      7.37551     13.29942     14.35311        -0.004886     -0.009157     -0.010348
Au      8.95344     15.34149     12.89485         0.004037     -0.012542     -0.003907
Au      4.91358     13.84675     13.21986        -0.000524      0.013601     -0.005910
Au      8.91144     15.64369     10.07191        -0.007460     -0.017004     -0.011328
Au      5.67600     11.19121     13.21665        -0.004205     -0.002000     -0.028732
Au      8.15561     10.52034     14.46450        -0.006528      0.008672     -0.006663
Au      4.36407     12.30668     10.98543         0.026470     -0.023950     -0.014167
Au      7.84434     10.80702     11.40681         0.013652     -0.010994      0.009821
Au      7.03063     13.80186     11.43484         0.001516     -0.014882      0.000903
Au     11.31712     14.42974     14.19150        -0.005840      0.013225     -0.020398
Au      9.59599     12.61660     12.74977        -0.009123     -0.002886     -0.008709
Au     12.60130     12.15766     15.18883        -0.007857     -0.028183     -0.048629
Au     14.99114     11.75971     11.11339         0.002822     -0.022617      0.008157
Au     15.02621     11.51469     13.93096        -0.010633      0.007164     -0.008655
Au     11.31939     14.85931     11.40233        -0.003011     -0.007868      0.020587
Au      9.81871     12.49991     15.55636        -0.002970      0.022607     -0.015347
Au      9.32942     12.86784      9.92918         0.007549     -0.003875     -0.012627
Au     11.89481     11.92176     11.28207        -0.002336      0.004145     -0.016684
Au     13.56476     13.60440     12.79870        -0.019500     -0.001100     -0.014486
