75
# total energy = -211.32169756 eVAu     14.96324     16.99411      9.23605         0.030127      0.010606     -0.026079
Au     16.05073     15.07762     14.45176        -0.014340     -0.008582     -0.005864
Au     11.61965     19.13315     12.06196         0.030384     -0.001775      0.031395
Au     21.11502     12.37661     11.74098        -0.000177     -0.046916     -0.006612
Au     17.40972     15.64188      9.65206        -0.001311      0.001898     -0.031716
Au     17.05056     18.29470     10.62915        -0.054259      0.020951      0.037685
Au     22.11811     12.96452     14.30826        -0.027729      0.024067      0.035812
Au     13.44122     14.78375     10.17150         0.037693     -0.019545      0.023300
Au     15.15063     10.06690     14.31099         0.020697     -0.006135     -0.005921
Au     19.32372     12.75673     13.93564         0.011035     -0.040706     -0.046979
Au     12.25493     17.37726      9.99020         0.012749      0.037918      0.028266
Au     19.04501     19.40085     12.30787         0.027299      0.024667     -0.018294
Au     15.88459     13.36681     10.45618         0.002254      0.008164      0.041779
Au     16.93015      9.93802     12.17234        -0.013394     -0.008673     -0.022995
Au     11.03652     13.95339     13.72221        -0.038332     -0.020387     -0.000115
Au     18.34635     12.03520     10.96643        -0.000863      0.012438     -0.007758
Au      9.92413     16.55690     13.48285         0.007364     -0.010459      0.009581
Au      9.86189     19.63917     14.07249        -0.044804     -0.102177     -0.052005
Au     13.97206     13.90723     12.86170         0.012670     -0.028077      0.003948
Au     12.57687     11.44628     13.83047        -0.046131      0.066192      0.028050
Au     19.64739     10.18281     12.74700         0.035485      0.019082     -0.032292
Au     12.69210     16.50310     12.65456         0.005327      0.001067      0.009940
Au     16.53775     12.45848     13.28468        -0.035779     -0.019975     -0.016338
Au     16.37226     19.95159     12.91277        -0.008165     -0.013269      0.042654
Au     19.83202     14.30663     10.23366        -0.022509      0.004153     -0.047748
Au     13.68279     20.28709     13.65666         0.035632     -0.040863     -0.012515
Au     12.00501     12.65596     11.35382        -0.012706     -0.036278     -0.001728
Au     15.43741     16.08812     11.81287         0.003618      0.001238      0.024050
Au     10.72453     15.19986     11.16355         0.002560     -0.015539      0.021583
Au     17.51767     17.28977     13.34006        -0.022570      0.039530      0.005271
Au     21.21101     15.07225     12.65620        -0.043011     -0.004204      0.057019
Au     14.45738     11.24603     11.70585        -0.021709     -0.028907     -0.033712
Au     14.77235     17.67059     14.18122        -0.067952      0.035417     -0.008976
Au     20.50897     17.52039     13.85116        -0.020215     -0.005092      0.024529
Au     17.96538     14.64337     12.29257         0.026365      0.015209     -0.068588
Au     19.56717     16.89573     11.19731         0.023869     -0.029838      0.008145
Au     14.30152     18.93122     11.22923        -0.016642      0.021632      0.021479
Au     12.35805     19.47392     18.82083         0.015847      0.002863      0.012942
Au     12.42423     14.83556     18.17659         0.000467     -0.025835     -0.014447
Au     17.73361     19.22394     17.76634         0.068302     -0.000532      0.001295
Au     13.95072     17.54749     16.90804         0.017582      0.028307      0.056397
Au      9.15227     17.60481     15.89671         0.001342     -0.049787      0.021226
Au     18.47780     19.41816     15.02846         0.005219     -0.000285      0.038965
Au     19.01254     17.21687     19.27859         0.012651      0.012948      0.026838
Au     19.53093     13.25167     19.22165         0.012642     -0.041308     -0.041534
Au     21.65936     15.46352     15.47722        -0.020836     -0.049112      0.020651
Au     20.63001     10.68712     15.33130        -0.015679      0.038772      0.014739
Au     18.87739     11.16502     17.46793         0.039508      0.032654     -0.038981
Au     18.90597     15.31114     14.93538        -0.037950     -0.003425      0.023730
Au     18.17048     15.14131     17.60902         0.016149     -0.004780      0.000705
Au     21.06555     12.98104     16.89186         0.018416      0.013776      0.066987
Au     16.09505     10.65783     16.97472         0.001800      0.025055      0.040760
Au     20.94883     15.47083     18.17339         0.015089     -0.029103     -0.044305
Au     10.37798     15.18668     16.16826         0.052290     -0.022625     -0.049693
Au     17.56175     14.96415     20.32969         0.015675     -0.004430      0.028918
Au     15.07673     19.67095     18.40500        -0.036511     -0.019652     -0.017392
Au     10.53311     19.82041     16.79997        -0.002148     -0.005033     -0.049845
Au     10.94164     17.20408     18.03254         0.070522      0.017050     -0.017871
Au     17.42062     13.03471     15.96171        -0.004774      0.050125     -0.029319
Au     17.91620     10.01590     14.94787        -0.007023      0.052737      0.046004
Au     15.82794     20.05312     15.68848         0.031802      0.043698     -0.011930
Au     15.34038     14.97165     17.18094        -0.045990      0.013056     -0.037983
Au     16.16701     17.23494     19.32240        -0.016957     -0.035836     -0.052057
Au     13.36121     17.03515     19.63398        -0.001649      0.010406     -0.049111
Au     12.01501     18.14033     14.91208         0.059097      0.021826     -0.016558
Au     13.34001     10.48259     16.38508        -0.033859     -0.034846      0.052407
Au     13.14622     15.42376     15.26725        -0.060325      0.004310     -0.003514
Au     14.02499     12.48507     18.22109         0.019902      0.015403      0.020010
Au     16.77280     12.70862     18.82828        -0.032171     -0.041176      0.046070
Au     11.83784     12.82960     16.27155        -0.029815      0.075888     -0.069677
Au     14.58615     12.80793     15.40262         0.019904      0.054781     -0.000100
Au     14.80824     14.65393     19.85792         0.029946     -0.000727      0.042651
Au     16.82666     17.18487     16.17359        -0.037562      0.018006     -0.028129
Au     19.87982     17.55858     16.62099         0.035807      0.031261     -0.007559
Au     13.18211     20.48590     16.34347         0.010759     -0.051260      0.010459
