75
# total energy = -206.12223908 eVAu     14.95812     16.95762      9.30129         0.223244      0.130198     -1.038478
Au     16.06149     15.06240     14.40483         0.041605     -0.029827     -0.025940
Au     11.64117     18.78321     12.23079        -0.396521      0.783295     -0.826122
Au     21.00900     12.43698     11.82177         1.132340     -0.385549     -0.717219
Au     17.37315     15.66216      9.73317         0.226063     -0.138259     -1.264556
Au     16.98309     18.23691     10.73163         0.090629      0.676860     -0.743963
Au     21.89028     13.04994     14.36364         1.230105     -0.075154      0.079922
Au     13.50156     14.76684     10.22448         0.352608     -0.604909     -0.832676
Au     15.06696     10.21689     14.28888         0.013714     -1.108379      0.083992
Au     19.22448     12.77199     13.85865        -0.679605      0.580039      0.269777
Au     12.35934     17.23098     10.07169        -0.675657      0.749182     -0.898281
Au     18.94224     19.40751     12.30339         0.490487      0.811504     -0.422388
Au     15.92220     13.44540     10.68714        -0.044004     -0.437315     -0.977678
Au     16.94184      9.99390     12.26085        -0.298598     -0.820221     -0.619995
Au     11.32026     14.04417     13.61193        -1.054381     -0.237313      0.357270
Au     18.34806     12.10572     11.15778        -0.383662     -0.229746     -1.051549
Au     10.17636     16.69842     13.43460        -1.052383     -0.530166     -0.490892
Au     10.00506     19.52586     14.17164        -0.505916      1.224441     -0.849373
Au     14.03985     13.80804     12.82353         0.504484      0.599702      0.325506
Au     12.63759     11.55252     13.82103        -0.764504     -0.643362     -0.124263
Au     19.60359     10.28187     12.80373         0.591784     -1.184066     -0.283020
Au     12.82371     16.35153     12.65004         0.509932     -0.065701      0.633604
Au     16.48989     12.44733     13.28358         0.247698      0.792030      0.311902
Au     16.31490     19.77915     13.05243        -0.124762      0.941089     -0.155945
Au     19.76283     14.31873     10.28841         0.306549      0.094355     -1.006266
Au     13.58478     20.01372     13.75854         0.004194      0.965939      0.051102
Au     12.09465     12.66933     11.33103        -0.364276     -0.869140     -0.653531
Au     15.49941     16.04463     11.78082        -0.135129     -0.322256      0.768116
Au     10.92156     15.14919     11.14350        -1.334171     -0.009203     -0.466345
Au     17.53623     17.30343     13.32573        -0.533841     -0.714167      0.306934
Au     20.76345     15.01569     12.80409         1.062901      0.623345     -0.333029
Au     14.49126     11.27568     11.75988        -0.291360     -0.848822     -0.970505
Au     14.81853     17.63436     14.16582        -0.255860     -0.687851      0.265328
Au     20.28711     17.56374     13.86435         1.129142      0.299651     -0.078560
Au     17.94804     14.69391     12.25659        -0.381504     -0.216132      0.769188
Au     19.39329     16.90191     11.23566         0.900373      0.312655     -0.576382
Au     14.31429     18.59757     11.47800        -0.173156      0.959293     -0.478385
Au     12.42990     19.49727     18.90477        -0.451264      0.762110      1.020205
Au     12.73467     14.99253     17.98629        -0.849801     -0.195332      0.589214
Au     17.75604     19.12725     17.77611         0.247324      0.809869      0.282525
Au     14.10966     17.47683     16.92711         0.141361     -0.556371     -0.889462
Au      9.26688     17.65608     15.87459        -1.266141     -0.760266      0.546587
Au     18.42291     19.33743     15.01176         0.366032      0.830382      0.354879
Au     18.99831     17.17953     19.28886         0.558847      0.708427      0.930671
Au     19.43070     13.30347     19.17231         0.569162     -0.650223      0.831903
Au     21.51699     15.58341     15.47493         0.875940      0.329251      0.051650
Au     20.47962     10.87359     15.35568         0.685828     -0.934152      0.413287
Au     18.70038     11.21811     17.47449         0.196713     -0.740070      0.577163
Au     18.86652     15.37047     14.91474        -0.754117     -0.496674      0.032092
Au     18.17274     15.18087     17.63040        -0.439030     -0.080000     -0.792616
Au     20.21295     13.35936     16.53228         0.585913     -0.251910      0.295235
Au     15.95088     10.83093     16.95492         0.273593     -0.986355      0.491324
Au     20.83731     15.48054     18.17430         1.121723      0.179592      0.484647
Au     10.67097     15.38994     15.92586        -0.554420     -0.629181      0.444601
Au     17.59125     15.00303     20.28747         0.073506     -0.089712      1.303533
Au     15.09822     19.47012     18.48849         0.467512      0.868822      0.680240
Au     10.60992     19.78533     16.80033        -0.412104      1.118029      0.604020
Au     11.35584     17.34363     17.74425        -0.724293     -0.717757      0.701057
Au     17.37558     13.05645     15.97596        -0.004499      0.758461     -0.506072
Au     17.80065     10.44465     14.89275        -0.119798     -1.200173      0.496183
Au     15.81516     19.73799     15.78882         0.003152      1.043213      0.009964
Au     15.40380     14.88678     17.16174         0.401512      0.300273     -0.695604
Au     16.26384     16.99983     18.90963        -0.111874      0.374872      0.606162
Au     13.57725     17.14134     19.56336        -0.291216     -0.201963      1.093677
Au     12.03477     17.95251     15.04308         0.780839     -0.112026     -0.072495
Au     13.27986     10.57011     16.34925        -0.572147     -0.855153      0.360377
Au     13.32117     15.31932     15.23217         0.395726      0.496115     -0.252629
Au     14.04480     12.55893     18.12738        -0.318063     -0.300847      0.877852
Au     16.74978     12.87345     18.73221        -0.252558     -0.767966      0.741732
Au     11.97405     12.96870     16.18074        -0.872821     -0.057380      0.299016
Au     14.62044     12.76485     15.40812         0.438250      0.764181     -0.378665
Au     14.88612     14.70105     19.81143        -0.428417     -0.233393      0.766966
Au     16.88568     17.17926     16.11057        -0.298783     -0.764932     -0.182414
Au     19.71366     17.45922     16.62726         0.768444      0.786584      0.030797
Au     13.23612     20.14383     16.44771         0.161412      1.065615     -0.484903
