75
# total energy = -210.98974808 eVAu      7.93266     10.04535      4.24501         0.082264     -0.021875     -0.060476
Au      5.19458      8.39440      8.28044        -0.062699     -0.046309      0.046246
Au      7.71595      9.27273      8.97348         0.193722     -0.002139      0.152639
Au      7.29063      6.49511      8.07701         0.003844     -0.119519      0.097835
Au      8.55818      8.31530      6.34245         0.090372      0.037739      0.007589
Au      6.54763     10.43611      6.68024        -0.101623      0.070369     -0.169732
Au     13.96647      6.64557      6.04377         0.043734      0.019216     -0.013299
Au     12.73205      8.86659      4.89004        -0.069159      0.067765      0.113492
Au     15.70997      7.02771      8.27639        -0.022368     -0.123168      0.140355
Au     12.87624      7.39433      8.51970         0.034836     -0.168274     -0.165702
Au     10.13898      8.35412      3.97224        -0.102683      0.022720      0.026663
Au     12.38701      4.78153      7.50559         0.074559     -0.138445      0.130867
Au     13.19112      9.84784      9.67666         0.035523      0.238586     -0.069103
Au     11.02468      6.76440      6.09460        -0.011957      0.078922     -0.174344
Au     14.12414      5.11052      9.69457         0.138999      0.120885     -0.020812
Au     10.03442      7.43335      8.70647        -0.152909      0.006687      0.153394
Au     14.68707      9.29390      6.94373        -0.122107      0.105056      0.006442
Au     16.00029      9.52974      9.48524        -0.125155     -0.002551      0.018504
Au      9.60926      4.85899      7.76916        -0.053574      0.056435      0.095159
Au     11.32005      9.46963      7.26743         0.057208      0.081835      0.030687
Au      3.94519     13.76472      8.54256         0.018940     -0.097579     -0.026650
Au      5.99737     13.28006      6.76177         0.042991      0.061684     -0.053908
Au      8.19508     12.61038      5.25958        -0.060843      0.011250      0.046993
Au      4.31225     11.00292      8.44459        -0.092285      0.053882      0.027088
Au      6.32469     15.00691      9.05623         0.139175      0.034412     -0.078176
Au      6.81188     12.07597      9.19380         0.021265     -0.008298      0.055601
Au      8.53018     14.46741      7.44166        -0.117121      0.021420      0.090212
Au     10.53603     10.95001      4.80496         0.079382      0.103184      0.033897
Au     13.49539     13.94471      9.91025         0.058197     -0.050508      0.042058
Au     10.76034     13.41542      6.12825         0.080424     -0.059127     -0.127598
Au     13.32671     14.00882      7.12392        -0.016793     -0.024816      0.071312
Au     11.07089     14.93758      8.55135         0.005149      0.020649      0.069676
Au      9.12323     11.29083      7.54688         0.045875      0.042210      0.108155
Au     11.70446     12.08544      8.49820         0.117845      0.100409     -0.073297
Au     14.73841     11.81276      8.23983         0.004580     -0.071531      0.052294
Au     13.05282     11.47449      5.96411        -0.063809     -0.142150     -0.082308
Au      6.56216      8.64956     13.01233        -0.072952      0.206118     -0.015799
Au      8.56839      5.26045     10.34117         0.005637     -0.021029     -0.048808
Au      5.07603      9.76205     10.84140         0.080234     -0.050443      0.063874
Au      7.48842      6.00797     12.82273        -0.012080      0.005334     -0.059127
Au      9.06480      7.84384     14.23478         0.103756      0.023217      0.068562
Au      6.16439      7.13777     10.59596         0.000774     -0.093308     -0.046023
Au      8.84603      7.97879     11.28394         0.153443      0.231843     -0.031278
Au     10.35347     10.07569      9.92390        -0.254990     -0.181016      0.056026
Au     14.69400      7.48647     13.68522         0.211250     -0.032364     -0.121153
Au     15.57602      7.07738     11.07347        -0.055537      0.015211     -0.039774
Au     13.18945      5.65965     12.23105        -0.025526      0.045712     -0.018382
Au     13.37676      9.64724     12.43184        -0.100676      0.109334      0.080182
Au     16.19873      9.54589     12.25101         0.016920     -0.187004      0.046434
Au     10.30555      5.72519     12.60217         0.058143     -0.023353     -0.101982
Au     13.48732      9.47762     15.24789         0.074009      0.082989      0.032974
Au     11.78116      7.77373     11.04640        -0.191954      0.013448      0.052357
Au     11.37253      4.81006     10.14726        -0.017623      0.140945      0.004789
Au     10.54645      9.91841     12.75764        -0.018427     -0.069783     -0.020897
Au     11.89775      7.49594     14.09025        -0.115878      0.025868     -0.028799
Au     10.69277      9.77194     15.54676         0.030866      0.037879     -0.144865
Au      7.36000     13.33689     14.38585        -0.092099      0.095270      0.025159
Au      8.96388     15.39388     12.91540         0.016401     -0.044839      0.023019
Au      4.85918     13.92652     13.29097         0.087939      0.119084      0.000659
Au      8.81354     15.64508     10.11425        -0.011607     -0.087416     -0.087373
Au      5.71591     11.33350     13.13241         0.151949     -0.346547     -0.036638
Au      8.12981     10.53413     14.47785        -0.156150     -0.132679     -0.068039
Au      4.44867     12.51119     10.93247        -0.079641     -0.037667     -0.088131
Au      7.96703     10.78236     11.43949        -0.029925     -0.090494      0.006914
Au      7.03056     13.80303     11.52772         0.063645      0.011217      0.053085
Au     11.33102     14.49985     14.16567        -0.038434      0.022922     -0.015729
Au      9.61389     12.63341     12.82417         0.029618      0.020430     -0.111315
Au     12.35694     11.97056     14.68642         0.019610      0.007350      0.042966
Au     15.02945     11.83115     11.04981        -0.054277      0.009375     -0.019877
Au     14.98659     11.55728     13.84968        -0.019514     -0.035136      0.023372
Au     11.32713     14.96814     11.39378        -0.067102     -0.042187     -0.013088
Au      9.74894     12.49770     15.58293         0.111034      0.083009      0.118594
Au      9.38967     12.86989     10.03018         0.061675      0.004351     -0.010118
Au     11.96056     11.95353     11.40188         0.026723     -0.032152     -0.076667
Au     13.63935     13.76807     12.72803        -0.083032     -0.082515      0.003144
