75
# total energy = -211.32874084 eVAu      8.65778      8.94279      5.84733         0.016199      0.013705      0.041057
Au      6.37755      8.18244      9.66197         0.008083     -0.031389     -0.006095
Au      9.40037      8.28289      8.81600        -0.013085     -0.010786     -0.044745
Au      7.55365      6.72481      7.46396         0.007074      0.023494      0.024250
Au      6.07072      9.05152      6.99611        -0.007532     -0.031725      0.009078
Au      9.52341      6.25873      5.56855         0.029977      0.001455     -0.014707
Au     16.74319      7.43690      8.38193         0.015375      0.009124     -0.008176
Au     10.98706      8.71595      4.22275         0.012043     -0.031655     -0.001560
Au      9.99185      5.27539      8.20158         0.020808      0.009858      0.010327
Au     16.49046     10.24173      8.83993        -0.014565     -0.035569      0.013004
Au     11.49212      7.83139      6.88327        -0.006564     -0.016256      0.003168
Au     12.06926      5.03803      6.32326        -0.028628      0.004012     -0.019326
Au     15.38660      5.13355      9.62976        -0.006194     -0.010553      0.002023
Au     11.66725      6.04742      3.79085         0.011685      0.037966      0.074152
Au     14.19511      6.56005      7.48174         0.004771      0.006173      0.030321
Au     12.01195      7.11422      9.57548        -0.025121      0.002203      0.008909
Au     13.61089      7.65157      4.92996        -0.027557      0.012795     -0.019799
Au     12.71996      4.47809      8.93572         0.017250      0.010623      0.025213
Au     15.41255      9.03292      6.48736         0.017197      0.007238     -0.000374
Au     13.33289      9.37553      8.35084        -0.040112      0.034034      0.008658
Au      4.15290     13.15503      8.67140         0.040219     -0.016317     -0.013618
Au      6.71994     13.54868      7.54380        -0.016095     -0.020243      0.030871
Au      7.55648     11.53359      5.64795         0.007089      0.013591     -0.029472
Au      4.97350     11.54145      6.60482         0.018117      0.031499      0.048092
Au      7.88994     10.75313      8.33783        -0.005246     -0.001382      0.034891
Au      4.85252     10.46971      9.20176         0.017087      0.032128      0.006328
Au      8.57445     14.82431      9.19990         0.011050      0.011399     -0.002289
Au      9.41138     13.27235      6.89086         0.043476      0.016910      0.003301
Au     10.27023     11.27951      4.99914        -0.005624      0.010082      0.004854
Au     12.17685     12.82903      6.46548         0.012246      0.025580     -0.010389
Au     14.74049     11.71394      7.18069        -0.023188      0.007088      0.000023
Au     11.30586     14.52875      8.58457        -0.005932     -0.003859      0.019681
Au     10.71523     10.50971      7.61371         0.002093     -0.021164      0.007405
Au     12.66524     12.11448      9.11183         0.012189      0.009021     -0.022185
Au      9.82286     12.27780      9.78191        -0.002501     -0.005609     -0.029304
Au     12.97481     10.34394      5.44039         0.016551     -0.021762      0.010769
Au      7.57626      9.95236     13.99608         0.010944      0.004657      0.001681
Au      8.05953      5.94421     10.12755        -0.019310     -0.030656      0.015024
Au      8.68211      5.37385     12.81830         0.015049      0.013143     -0.000810
Au      8.43686      9.97747     11.03954        -0.044480      0.022147     -0.022507
Au      9.23066      7.63331     14.40849         0.017543     -0.001081     -0.009980
Au      7.14698      7.66790     12.34448         0.006013     -0.005095      0.019657
Au     11.26821      9.82674     10.32538         0.007087     -0.005413     -0.031588
Au     17.32172      8.42358     10.94783         0.014488      0.024591     -0.017886
Au     14.66672      7.78196     10.24022        -0.016502     -0.009529      0.004479
Au     14.01029      6.58432     14.07324         0.020874      0.025246     -0.018846
Au     13.40628      5.06832     11.66652         0.023689      0.032905     -0.017736
Au     16.00439      6.19726     12.16242        -0.025550     -0.017503      0.017454
Au     10.70068      4.79079     10.90409        -0.000965      0.002730      0.003579
Au     15.39443      8.88694     13.06003        -0.023918      0.012462     -0.015697
Au     11.97017      8.30166     15.03558        -0.015388     -0.019502     -0.005344
Au     12.69518      8.19266     12.23597        -0.032877      0.012662     -0.031265
Au     10.53516      9.95198     13.10505        -0.013818     -0.032521      0.017029
Au     11.37673      5.84234     13.50143        -0.014482      0.018787      0.007292
Au      9.96795      7.57517     11.57355         0.024222      0.003639      0.008758
Au      9.83246     10.01070     15.79353        -0.000531     -0.008759     -0.045934
Au      6.26203     12.37359     13.37239         0.011920     -0.013115      0.034376
Au      9.04367     12.36550     12.54053        -0.014826     -0.004936      0.003571
Au      5.86997     14.85955     10.00677        -0.001503      0.023395     -0.039659
Au      4.42504     12.42698     11.31945        -0.011376     -0.031986      0.001730
Au      5.68116      9.97634     11.82353        -0.001236      0.011299      0.004216
Au      8.34790     12.38311     15.27031        -0.016088     -0.020748     -0.016593
Au      7.07748     12.41119     10.47090        -0.005695     -0.033114     -0.011585
Au      7.78827     14.91398     11.98389         0.051015      0.021070      0.031273
Au     12.44874     14.40503     13.39856         0.000488     -0.030440     -0.035226
Au     13.25568     14.39564     10.65651        -0.014260     -0.019335      0.013714
Au     14.60897     12.75135     12.60293         0.007519     -0.001338     -0.004497
Au     13.99905     10.41606     11.01763        -0.042258     -0.019045     -0.006899
Au     13.36519     10.60494     14.04647         0.000221     -0.006512     -0.024985
Au      9.69168     14.63819     14.05100        -0.004565      0.010911     -0.027574
Au     10.52769     14.93074     11.30940         0.003297     -0.015386      0.003973
Au     11.18886     12.27461     14.76595        -0.003736     -0.003272     -0.015267
Au     15.36448     12.70240      9.74897        -0.008441     -0.000243      0.011596
Au     11.84137     12.14225     11.90104         0.013885      0.023419     -0.006858
Au     16.63695     11.02625     11.62814        -0.009084     -0.005241      0.012995
