75
# total energy = -209.33755005 eVAu     14.97575     16.96790      9.21929         0.016272     -0.054286      0.000090
Au     16.06478     15.06004     14.40278        -0.116779      0.052671     -0.060553
Au     11.60986     18.84506     12.16556        -0.188251      0.216479     -0.297554
Au     21.09841     12.40654     11.76514         0.026239     -0.017358     -0.018432
Au     17.39100     15.65124      9.63332         0.132397      0.021371     -0.272380
Au     16.99025     18.29035     10.67289         0.124464      0.108411     -0.165489
Au     21.98741     13.04401     14.36995         0.145113     -0.063962     -0.127153
Au     13.52940     14.71908     10.15873        -0.203808      0.035777     -0.249238
Au     15.06804     10.12937     14.29551        -0.109796     -0.262616      0.026748
Au     19.17082     12.81779     13.87995         1.153713     -0.855034     -0.221469
Au     12.30599     17.29013     10.00076        -0.001490      0.009124     -0.163736
Au     18.98097     19.47159     12.27004        -0.069683     -0.087846      0.067983
Au     15.91873     13.41087     10.60994         0.016122     -0.268328     -0.557068
Au     16.91826      9.92914     12.21190        -0.032298      0.053532     -0.076708
Au     11.23701     14.02543     13.64014        -0.489032     -0.254518     -0.269253
Au     18.31777     12.08758     11.07475         0.156421     -0.220125     -0.249284
Au     10.09326     16.65656     13.39584        -0.354359      0.016501      0.015246
Au      9.96511     19.62254     14.10457        -0.021744     -0.061322      0.312675
Au     14.07968     13.85539     12.84923        -0.488764     -0.572842     -0.445177
Au     12.57723     11.50172     13.81122        -0.077230     -0.187936     -0.004884
Au     19.65032     10.18838     12.78138         0.011484     -0.000854      0.013226
Au     12.86397     16.34634     12.70007        -0.907631      0.225083     -0.738819
Au     16.50945     12.50987     13.30821        -0.239044     -0.809757     -0.453431
Au     16.30505     19.85346     13.04012         0.149669      0.192754     -0.084315
Au     19.78703     14.32618     10.20896        -0.048783     -0.019450     -0.035418
Au     13.58511     20.08999     13.76258         0.093050      0.318441     -0.249402
Au     12.06589     12.60070     11.27943         0.056893      0.011310     -0.010219
Au     15.48874     16.01918     11.84147         0.048413      0.264099     -0.801355
Au     10.81621     15.14846     11.10668        -0.068592     -0.022427     -0.003859
Au     17.49408     17.24704     13.34997         0.384438      0.826345     -0.286104
Au     20.84738     15.06491     12.77779         0.636031     -0.021404     -0.268387
Au     14.46825     11.20866     11.68325        -0.086000     -0.258894     -0.155944
Au     14.79833     17.58005     14.18677         0.177070      0.637234     -0.190294
Au     20.37627     17.58740     13.85815         0.240144      0.248911     -0.111791
Au     17.91792     14.67684     12.31732         0.350583      0.140078     -0.891456
Au     19.46438     16.92660     11.19015         0.167394      0.168047     -0.172533
Au     14.30062     18.67332     11.44023        -0.101335      0.374125     -0.410835
Au     12.39427     19.55745     18.98532        -0.013259      0.075797      0.010960
Au     12.66757     14.97711     18.03281        -0.176437     -0.321455      0.409797
Au     17.77557     19.19120     17.79842         0.075140      0.064224     -0.059906
Au     14.12082     17.43290     16.85688         0.019007      0.357052      0.822141
Au      9.16691     17.59605     15.91775         0.020411      0.225649     -0.082036
Au     18.45181     19.40300     15.03978         0.106466      0.195583     -0.111051
Au     19.04244     17.23547     19.36235         0.143153      0.003864      0.090164
Au     19.47564     13.25213     19.23800        -0.038324     -0.010842      0.216514
Au     21.58615     15.60941     15.47901         0.102397      0.056985      0.039578
Au     20.53377     10.79983     15.38831         0.074456     -0.167298     -0.090978
Au     18.71591     11.15967     17.52006         0.024529     -0.074234      0.097638
Au     18.80698     15.33125     14.91727         0.721824      0.358991      0.033721
Au     18.13807     15.17455     17.56782         0.717449      0.068250      1.126761
Au     20.25921     13.33947     16.55559         0.428586     -0.196152      0.212771
Au     15.97248     10.75305     16.99371        -0.117785     -0.293489      0.136613
Au     20.92588     15.49472     18.21257         0.103553      0.156919      0.149957
Au     10.62719     15.34026     15.96097        -0.409258     -0.058738      0.234138
Au     17.59705     14.99595     20.39040         0.119676     -0.082308      0.119792
Au     15.13513     19.53872     18.54220        -0.251239      0.234140      0.120424
Au     10.57738     19.87361     16.84802        -0.111468     -0.084664     -0.028166
Au     11.29865     17.28696     17.79960        -0.438392      0.371774      0.367001
Au     17.37522     13.11634     15.93600         0.079355     -0.635116      0.484674
Au     17.79119     10.34989     14.93193         0.225386     -0.662759      0.028155
Au     15.81541     19.82036     15.78961         0.250240      0.451233      0.042413
Au     15.43550     14.91049     17.10682        -0.379829     -0.157886      0.634843
Au     16.25501     17.02943     18.95749         0.066408      0.124108      0.401505
Au     13.55426     17.12539     19.64972        -0.242986      0.171419      0.107787
Au     12.09642     17.94366     15.03736        -0.679320      0.368650     -0.194855
Au     13.23468     10.50259     16.37771         0.009832      0.127960      0.003957
Au     13.35242     15.35849     15.21222        -0.479634     -0.340877      0.271803
Au     14.01969     12.53518     18.19669        -0.150919     -0.189180      0.055432
Au     16.72984     12.81281     18.79078         0.053427     -0.263282      0.470377
Au     11.90513     12.96417     16.20435         0.039488     -0.397956      0.120008
Au     14.65504     12.82519     15.37822        -0.589929     -0.662151      0.399650
Au     14.85229     14.68262     19.87199        -0.042971     -0.092708      0.020898
Au     16.86209     17.11886     16.09617         0.179898      0.685319      0.250475
Au     19.77434     17.52133     16.62969         0.399241      0.274583      0.204374
Au     13.24886     20.22797     16.40942        -0.319462      0.437259      0.489241
