75
# total energy = -211.37734988 eVAu      8.68543      8.97079      5.93388        -0.016011     -0.004382     -0.019704
Au      6.35215      8.10179      9.70850         0.001905     -0.007135     -0.000248
Au      9.36597      8.26920      8.78486        -0.001408      0.005743      0.001854
Au      7.52739      6.65642      7.50661         0.006382      0.003514      0.009097
Au      6.05457      8.96894      7.04445         0.007537     -0.001841      0.007229
Au      9.50550      6.25919      5.61706         0.011900     -0.006887     -0.007961
Au     16.74362      7.43101      8.37332        -0.001736     -0.004174      0.000620
Au     10.98906      8.75039      4.24824         0.014150     -0.002311     -0.003945
Au      9.98408      5.24181      8.23979         0.013882      0.010472     -0.004432
Au     16.47682     10.22870      8.85154         0.001275     -0.001729     -0.004957
Au     11.50298      7.81137      6.87433        -0.008176      0.011259      0.004865
Au     12.04565      4.99258      6.36608         0.000145      0.011323     -0.004959
Au     15.41640      5.14208      9.62332        -0.004791      0.001606     -0.005904
Au     11.67076      6.07637      3.87386        -0.007605      0.002094     -0.009120
Au     14.16906      6.58190      7.49167         0.004054      0.002157      0.005082
Au     11.97920      7.12929      9.57016        -0.008758     -0.010403      0.003815
Au     13.62932      7.69712      4.92107        -0.001737     -0.000651     -0.000354
Au     12.74110      4.48968      8.96849        -0.000705     -0.002255     -0.000633
Au     15.41929      9.04909      6.49815        -0.003093      0.003177      0.003988
Au     13.30096      9.39099      8.34209         0.002587     -0.001811     -0.010027
Au      4.29420     13.13916      8.76327         0.009716     -0.006188      0.008530
Au      6.80422     13.57789      7.55169         0.000917      0.012677     -0.010310
Au      7.64017     11.59172      5.62334         0.010392      0.006828      0.005583
Au      5.09852     11.52419      6.67968         0.003900      0.006971      0.017392
Au      7.83909     10.75886      8.31653         0.003301      0.004648      0.002797
Au      4.88168     10.42779      9.24778        -0.016838     -0.012888      0.002325
Au      8.65080     14.90093      9.17641         0.005235      0.000939     -0.012481
Au      9.48661     13.34483      6.86140         0.014489     -0.005519     -0.009953
Au     10.33096     11.33813      4.97099         0.010268      0.005098      0.006271
Au     12.23535     12.88100      6.43720        -0.002063     -0.004835      0.018437
Au     14.75187     11.72976      7.18330         0.002275     -0.002440     -0.004688
Au     11.35719     14.56278      8.57703         0.014210     -0.000788      0.001668
Au     10.69386     10.51910      7.57789         0.000604      0.000843      0.002397
Au     12.63863     12.12212      9.08082        -0.003643     -0.010751      0.006682
Au      9.76444     12.29692      9.72879        -0.007381      0.003641      0.004220
Au     13.01159     10.38188      5.42171        -0.009893     -0.015378      0.004911
Au      7.55500      9.89943     14.03298         0.004192      0.005312     -0.003339
Au      8.04025      5.87356     10.16085         0.007230      0.005884     -0.001587
Au      8.70177      5.34715     12.83277         0.000336     -0.002791      0.012229
Au      8.36461      9.98596     10.99937         0.005775     -0.003618      0.006296
Au      9.22777      7.61305     14.40575         0.005460     -0.004436      0.004419
Au      7.13633      7.61981     12.37829         0.013114     -0.009652      0.007551
Au     11.20118      9.84468     10.28404        -0.002142     -0.001755      0.020920
Au     17.32429      8.42322     10.93789        -0.009557     -0.002675     -0.007536
Au     14.65087      7.77647     10.22953        -0.007642      0.009906     -0.001926
Au     14.01411      6.62491     14.05690         0.005796      0.011276     -0.001945
Au     13.43005      5.09939     11.66745        -0.001232     -0.000497      0.000376
Au     16.01920      6.20880     12.16669        -0.006357     -0.004963     -0.010960
Au     10.72135      4.78616     10.92800        -0.004696     -0.000904     -0.000530
Au     15.37950      8.89208     13.02594        -0.019344      0.006097     -0.003650
Au     11.94986      8.30304     15.00933         0.005133      0.002705      0.002482
Au     12.65210      8.20357     12.20307        -0.012998      0.005141     -0.006410
Au     10.46961      9.95238     13.06490         0.003556     -0.000576     -0.003494
Au     11.38267      5.85937     13.50042         0.002310     -0.008626      0.001975
Au      9.92252      7.57712     11.54447         0.003109     -0.001712      0.002164
Au      9.83013     10.00008     15.77175         0.006112     -0.002747      0.001125
Au      6.22439     12.28786     13.41796        -0.009633     -0.001847     -0.003501
Au      8.97681     12.37053     12.49321        -0.000579      0.003380      0.003171
Au      5.96204     14.97764      9.95690         0.005731      0.008890     -0.009786
Au      4.36788     12.32209     11.39540         0.000493     -0.014022     -0.006855
Au      5.65438      9.90188     11.87650        -0.010279     -0.003357     -0.004285
Au      8.34793     12.36285     15.24493        -0.003437     -0.000637     -0.006527
Au      7.00033     12.44545     10.45821        -0.015532      0.009012      0.008941
Au      7.85704     14.97998     11.94726        -0.004026      0.009301     -0.005708
Au     12.45717     14.37345     13.38858         0.004895     -0.000724      0.001814
Au     13.27203     14.38547     10.65137         0.009831     -0.000750     -0.007568
Au     14.59165     12.72644     12.59029         0.004983      0.003719      0.005352
Au     13.95482     10.41205     10.99181        -0.003647      0.003353     -0.002278
Au     13.32974     10.58869     13.99725         0.002275      0.007448      0.015054
Au      9.69917     14.61370     14.02815        -0.008996     -0.004660     -0.012836
Au     10.57757     14.96429     11.29989        -0.008738     -0.003458     -0.002212
Au     11.16897     12.25581     14.73105        -0.000078     -0.004422      0.001419
Au     15.35060     12.68956      9.74864         0.004012      0.005925      0.000509
Au     11.78504     12.15155     11.85656        -0.003191      0.002136      0.001829
Au     16.61502     11.01732     11.62831        -0.007524     -0.011279     -0.002776
