75
# total energy = -211.37118844 eVAu      8.29037      8.96815      4.76286         0.001276     -0.075312     -0.025769
Au      5.55689      8.21804      8.80429        -0.001331      0.055441     -0.007121
Au      8.64290      7.64532      9.85574         0.112603      0.026684      0.048917
Au      6.78333      5.71774      9.37021        -0.090782     -0.078484     -0.018764
Au      7.39079      7.20728      6.94793         0.011314      0.026920      0.012232
Au      6.60882      9.92955      6.70813        -0.082932      0.053873      0.046650
Au     14.92727      8.62747      7.71969         0.033639     -0.023998      0.007461
Au     11.05466      9.75422      5.16056        -0.022202     -0.020151      0.038869
Au     15.84598      6.79264      9.61403         0.068423     -0.053373     -0.006454
Au     13.26025      8.09605     10.00797        -0.017762     -0.001404      0.004988
Au     10.00369      7.06851      5.67155        -0.027183      0.028435     -0.001822
Au     11.59423      4.37202      9.05916         0.035622      0.012996      0.006669
Au     11.72842      5.12900      6.42118         0.043126     -0.065821     -0.006245
Au     13.83737      5.92733      7.96736         0.006931     -0.050170      0.023106
Au     11.14678      7.26381      8.36308         0.027137     -0.013112      0.065225
Au     12.82344      7.77224      6.01576         0.006540     -0.018701      0.000677
Au      9.35046      9.29019      7.51617         0.000416     -0.013975     -0.021080
Au      9.15673      5.24856      7.80489         0.039398      0.005230      0.023067
Au      5.15342     13.81422      9.23770        -0.036105      0.000320      0.002554
Au      6.82794     12.68244      7.25942        -0.035495     -0.000388     -0.031628
Au      4.87070     11.00150      8.52382         0.016830      0.011725     -0.060631
Au      7.60765     10.39927      9.45256        -0.011099      0.031414     -0.023389
Au      7.36259     15.25447      8.24693        -0.013597      0.006463     -0.006769
Au      7.85240     13.20619     10.17912         0.011859      0.011880     -0.006877
Au      8.83390     11.50945      5.62614        -0.035575      0.065130      0.028181
Au     11.52578     12.35884      6.22496         0.019158      0.013682      0.052543
Au     12.43810     13.12562      8.86712        -0.004564     -0.038045      0.013055
Au     10.12186     14.81215      9.07800        -0.000666      0.020851     -0.005977
Au      9.78462     11.96415      8.44439        -0.068407     -0.010433     -0.053393
Au     14.56292     11.26085      8.76082        -0.024056      0.008136      0.005101
Au     12.02691     10.06512      8.22673         0.039800      0.000176     -0.084637
Au     13.64806     10.53110      6.09886         0.004313     -0.002670     -0.021414
Au      9.26699     14.05446      6.55168        -0.029372      0.020316     -0.001601
Au      7.26638      9.83144     14.68529        -0.004185      0.052767     -0.020133
Au      3.89212      9.42925     10.76721         0.030194      0.011872     -0.017824
Au      4.91157      6.85901     11.20211         0.001544      0.025156      0.009082
Au      6.72102      8.93450     11.67893         0.009968     -0.057858      0.014306
Au      8.37467      7.21936     14.84276        -0.058702     -0.046543      0.096730
Au      5.70034      7.60358     13.91474        -0.005898      0.019425     -0.019419
Au      7.41784      6.03733     12.27150         0.013381      0.041143     -0.014834
Au     10.39241      9.71378     10.39823        -0.160240      0.007312      0.044378
Au      9.06848      4.55312     10.53164         0.043919      0.007156      0.043509
Au     14.15952      7.42191     14.77801         0.046323     -0.058362      0.015265
Au     15.75852      9.41190     10.57830         0.028348     -0.028645     -0.009677
Au     13.81406      5.08147     10.67427         0.022241     -0.038116      0.005481
Au     12.82605      5.53351     13.29312         0.024380      0.003956     -0.030936
Au     12.39433      8.44144     12.65269        -0.007218     -0.045705     -0.054187
Au     15.07509      7.09583     12.22300         0.001247     -0.057578      0.003057
Au      9.90441      5.34247     13.40707         0.016430     -0.021194     -0.057469
Au     14.93372      9.76358     13.27262         0.008193     -0.018137      0.004103
Au     12.79397      9.70120     15.26862        -0.025055      0.025605     -0.000201
Au     11.08213      6.51900     11.07434         0.067389      0.050407     -0.034293
Au     11.49419      3.72497     11.72120         0.025677     -0.041162      0.005495
Au      9.45475      8.41147     12.64693         0.067623     -0.014111     -0.105173
Au     11.25186      7.22522     15.00852         0.021334     -0.012020     -0.039730
Au      9.90311      9.57783     15.58882        -0.001336      0.016375     -0.026242
Au      6.43841     12.48124     13.91520         0.043410      0.036529      0.032173
Au      8.39333     11.14068     12.15557        -0.003005      0.039383      0.008165
Au      3.13028     12.14675     10.32805         0.013816      0.011573      0.006858
Au      5.93482     14.55256     11.92580        -0.031470      0.003339      0.014878
Au      8.51321     14.27208     13.05441        -0.015121      0.020885      0.040285
Au      3.89006     12.86339     12.93924         0.006336      0.005528     -0.019204
Au      4.69350     10.18628     13.52550         0.033983      0.015470     -0.007785
Au      5.74040     11.63505     11.22362        -0.045196      0.036343      0.002788
Au      8.12107     15.97014     10.85371        -0.009876      0.010879      0.010080
Au     11.20724     13.74845     13.78710        -0.055908      0.044968     -0.030100
Au     13.08897     13.83401     11.60161        -0.011438     -0.017194     -0.054674
Au     11.52491     12.01969     15.88743         0.023321     -0.051080      0.054453
Au     12.82985     10.82200     10.98506         0.073615      0.034826      0.041567
Au     10.76259     15.46511     11.69547        -0.027546      0.023689      0.004999
Au     11.00575     10.85226     13.20886         0.013804     -0.002328      0.018756
Au     15.21718     12.01180     11.49320         0.015595      0.004848      0.016323
Au      8.98079     12.16775     14.86648        -0.100856      0.035904     -0.018114
Au     10.54346     12.67956     11.05307        -0.029895      0.024787      0.079388
Au     13.57859     12.13542     13.84090        -0.036380     -0.033735     -0.007848
