75
# total energy = -211.50152851 eVAu      8.28703      8.94137      4.79555         0.028818     -0.004620      0.042856
Au      5.53437      8.24593      8.77957         0.031042      0.020361      0.007632
Au      8.71239      7.61947      9.87858         0.038687      0.023811      0.032739
Au      6.78869      5.72653      9.36893         0.001628      0.017255      0.037024
Au      7.40568      7.22089      6.98386        -0.032586      0.003440     -0.030421
Au      6.58014      9.96475      6.69765        -0.006876     -0.027938     -0.019671
Au     14.96387      8.57416      7.71862         0.044533     -0.008928      0.012286
Au     11.03399      9.74348      5.22240        -0.001977     -0.023875      0.021443
Au     15.89741      6.72734      9.61685         0.006387      0.034895     -0.010350
Au     13.30855      8.11161      9.98973         0.034403      0.015509     -0.014334
Au     10.02051      7.04954      5.70421         0.010053      0.001208      0.009777
Au     11.65065      4.35583      9.06724        -0.010805     -0.018638      0.005022
Au     11.77076      5.09306      6.42333        -0.011536      0.020666      0.000530
Au     13.88251      5.86545      7.98582         0.005908      0.004116     -0.020665
Au     11.19560      7.26366      8.37638        -0.015535     -0.010986     -0.027713
Au     12.84184      7.73317      6.03988        -0.005028     -0.003916     -0.022213
Au      9.33385      9.28733      7.53907         0.009119      0.001831      0.014109
Au      9.20031      5.27172      7.85273         0.021671     -0.009246     -0.016810
Au      5.12482     13.84438      9.24005        -0.010432      0.009363     -0.020438
Au      6.73255     12.74538      7.16947         0.009946      0.009108      0.018740
Au      4.84979     11.05765      8.48728        -0.028029      0.008628      0.019671
Au      7.56377     10.41018      9.43831        -0.026098      0.006951      0.006949
Au      7.32688     15.26968      8.25854         0.006067     -0.003414     -0.032049
Au      7.82135     13.22656     10.18249         0.022725     -0.006268     -0.005216
Au      8.79325     11.52557      5.63585        -0.000326     -0.024092     -0.004778
Au     11.50988     12.34923      6.26978         0.010665     -0.017213     -0.007503
Au     12.40344     13.09852      8.88532         0.017948     -0.046979      0.007313
Au     10.10078     14.82761      9.07970        -0.001068     -0.003818      0.001038
Au      9.72165     11.99498      8.43193         0.000887     -0.009216      0.008314
Au     14.53497     11.20236      8.78535        -0.014393      0.006191      0.002635
Au     12.00512     10.05289      8.22357        -0.018042      0.042800      0.040899
Au     13.64809     10.47947      6.09414        -0.017637      0.029875      0.035191
Au      9.21862     14.07185      6.55183         0.001324      0.000181      0.004718
Au      7.25546      9.87183     14.70269         0.018099      0.007944     -0.031689
Au      3.92064      9.46702     10.74391        -0.013354      0.003945      0.012848
Au      4.92354      6.89191     11.18677        -0.011035      0.005582      0.018688
Au      6.75369      8.93373     11.66945         0.034128     -0.016522     -0.003938
Au      8.37800      7.22701     14.83667        -0.019515     -0.001363     -0.034690
Au      5.71370      7.63910     13.90411        -0.018744     -0.001611     -0.010524
Au      7.41917      6.05156     12.26752         0.016436      0.032457     -0.014539
Au     10.29247      9.84718     10.39077        -0.035960      0.012240      0.005582
Au      9.11298      4.57883     10.56181         0.035124      0.002896      0.040871
Au     14.19870      7.38463     14.77287        -0.014005      0.018184     -0.005914
Au     15.79793      9.36056     10.58585         0.033268     -0.018116     -0.025731
Au     13.90724      4.97601     10.67574        -0.000051     -0.021254      0.006099
Au     12.87211      5.50860     13.26625        -0.008667     -0.018237      0.010645
Au     12.42951      8.42805     12.61887         0.003031      0.005251      0.034171
Au     15.11289      7.02593     12.21654         0.013879      0.012553      0.009130
Au      9.92348      5.34358     13.35068         0.010017     -0.021504     -0.048206
Au     14.94284      9.71490     13.26423         0.007084      0.009400      0.019292
Au     12.79377      9.66681     15.24548         0.003821     -0.001800     -0.010507
Au     11.20089      6.48759     11.04857        -0.029144     -0.024015      0.012255
Au     11.55658      3.66788     11.71878        -0.027400      0.024352      0.001060
Au      9.50570      8.36866     12.60767         0.013070     -0.000797     -0.054748
Au     11.26102      7.21668     14.94111         0.028594     -0.003289      0.005065
Au      9.89577      9.57099     15.54786        -0.014763      0.020538      0.038528
Au      6.43046     12.55069     13.92633        -0.036228      0.002009     -0.004220
Au      8.36102     11.16297     12.18347        -0.026947      0.006354      0.002270
Au      3.11790     12.17240     10.32830         0.004002     -0.010278     -0.018510
Au      5.90513     14.58135     11.92350         0.001509      0.020255      0.014875
Au      8.46732     14.38302     13.13724         0.001343     -0.001455     -0.022788
Au      3.87580     12.88859     12.93137         0.012518     -0.001737      0.018338
Au      4.72415     10.22712     13.51029        -0.018070     -0.000869     -0.005202
Au      5.73173     11.66492     11.21792        -0.032005      0.003662      0.008071
Au      8.08230     15.98344     10.85629         0.022375      0.008979      0.022454
Au     11.16395     13.76287     13.79291         0.006402     -0.019344      0.014616
Au     13.05482     13.80579     11.58250         0.013075     -0.011881      0.008222
Au     11.50822     11.98136     15.87879         0.002932     -0.027511     -0.046705
Au     12.81407     10.81579     11.00415        -0.043274      0.019894     -0.040773
Au     10.71921     15.48696     11.71096        -0.001130     -0.002631     -0.003313
Au     10.97999     10.84043     13.20143         0.000503     -0.002739     -0.013846
Au     15.22645     11.96815     11.52219        -0.033651      0.011894     -0.031919
Au      8.95590     12.20809     14.87177         0.010937     -0.013850      0.031234
Au     10.49099     12.72150     11.07949         0.001550     -0.012666     -0.001033
Au     13.53054     12.09922     13.81195        -0.011196     -0.031960     -0.002244
