75
# total energy = -211.17104539 eVAu      7.95232     10.06175      4.24386        -0.011326      0.014823      0.007282
Au      5.19039      8.38402      8.30816        -0.006787     -0.057950     -0.029050
Au      7.71337      9.27611      8.97159        -0.040594      0.005854      0.012363
Au      7.27416      6.45327      8.09682        -0.007153      0.009362     -0.010651
Au      8.57495      8.34419      6.37526         0.004925      0.014776     -0.001265
Au      6.52180     10.46655      6.65347        -0.018934      0.019784      0.023926
Au     13.98508      6.63617      6.03652        -0.006546     -0.003183     -0.015990
Au     12.68262      8.86579      4.92894         0.010336     -0.003459      0.002657
Au     15.71364      7.00140      8.29216        -0.003459     -0.005816     -0.018553
Au     12.85018      7.37597      8.47923        -0.000454     -0.018372      0.025250
Au     10.10349      8.36998      3.98191        -0.012824     -0.013284      0.022458
Au     12.40624      4.74357      7.52840         0.013650     -0.005783     -0.024132
Au     13.14252      9.87768      9.65612        -0.008904     -0.019378     -0.029745
Au     11.03350      6.76699      6.07573        -0.006189     -0.003911      0.027401
Au     14.16945      5.13809      9.69730        -0.002371     -0.020503     -0.012724
Au      9.99144      7.43676      8.72893         0.002843      0.028811     -0.010495
Au     14.62658      9.28627      6.98214        -0.026973      0.027037      0.001827
Au     15.92972      9.49266      9.52323         0.010675     -0.002142     -0.000101
Au      9.61449      4.87858      7.78331         0.014475     -0.022537     -0.013887
Au     11.30836      9.50223      7.30299        -0.031953     -0.008436     -0.016813
Au      3.98393     13.73606      8.54039         0.032012     -0.032771      0.021110
Au      6.02411     13.32009      6.74315        -0.010869      0.004246      0.004586
Au      8.20483     12.61729      5.27096         0.031888      0.015100     -0.063961
Au      4.28149     10.98205      8.46775         0.005644     -0.014347     -0.004184
Au      6.35566     15.04169      9.00853        -0.001378     -0.020430     -0.002718
Au      6.78350     12.08393      9.20515        -0.014133      0.006106     -0.026110
Au      8.55078     14.47323      7.43353         0.011992      0.034282      0.001735
Au     10.55310     10.98572      4.78947        -0.001145     -0.001546     -0.024032
Au     13.52564     13.92915      9.94089         0.001967     -0.016848     -0.028072
Au     10.79058     13.43919      6.08543         0.039669     -0.004786     -0.033849
Au     13.34637     13.99420      7.14347         0.045117      0.011914      0.010497
Au     11.09103     14.95001      8.54597         0.031954      0.012925      0.007519
Au      9.10841     11.33434      7.57598        -0.002909     -0.001351     -0.014480
Au     11.71442     12.11916      8.46861        -0.015953     -0.006504     -0.013351
Au     14.75185     11.79936      8.25544        -0.027200     -0.011426      0.005297
Au     13.05845     11.46397      5.93988         0.011166      0.017276      0.012540
Au      6.54483      8.63848     13.01740         0.015631     -0.002469      0.028077
Au      8.56323      5.25044     10.34788         0.021064      0.017168     -0.014492
Au      5.08906      9.71904     10.84591         0.003161     -0.020081      0.011579
Au      7.50891      6.02105     12.81742         0.010607     -0.006681      0.036205
Au      9.09570      7.84068     14.25889         0.004355      0.019436     -0.013513
Au      6.16149      7.08121     10.59677         0.012731     -0.008078     -0.003404
Au      8.84620      8.01802     11.30798        -0.048431     -0.038469     -0.004124
Au     10.29384     10.07572      9.90900        -0.020353      0.020289     -0.006266
Au     14.74925      7.48822     13.65202         0.003261      0.000776      0.032160
Au     15.67907      7.01406     11.07859        -0.061194      0.046697      0.000247
Au     13.20361      5.71122     12.21573         0.010489     -0.015158     -0.004310
Au     13.33650      9.67064     12.44105         0.025415      0.011383      0.015686
Au     16.19407      9.48113     12.27712         0.018526      0.028071      0.018305
Au     10.32267      5.72447     12.57690         0.002123      0.040805      0.030203
Au     13.53535      9.48761     15.25108         0.002744     -0.000180     -0.004080
Au     11.75159      7.79854     11.02284        -0.030513      0.000981      0.012422
Au     11.39700      4.90164     10.13423        -0.013427      0.027581     -0.020378
Au     10.51704      9.92212     12.73347        -0.015209     -0.006137     -0.026934
Au     11.91560      7.53215     14.05109        -0.006982      0.019100      0.011326
Au     10.72516      9.81958     15.48759         0.026629      0.003430      0.016962
Au      7.35216     13.35408     14.39390         0.003881     -0.024142     -0.004365
Au      8.95171     15.38056     12.91410        -0.005582     -0.003941     -0.009660
Au      4.89514     13.92037     13.26476        -0.010099      0.027754     -0.014660
Au      8.82558     15.62845     10.09221         0.004041      0.014270     -0.003317
Au      5.71767     11.28529     13.13440        -0.004881     -0.019361      0.032180
Au      8.11252     10.52248     14.47059         0.013194     -0.002155      0.019764
Au      4.41390     12.45898     10.94352        -0.011139     -0.001405     -0.024375
Au      7.93951     10.77596     11.43697        -0.022385      0.009271     -0.011582
Au      7.03823     13.80793     11.50857         0.011925     -0.021935     -0.025413
Au     11.30623     14.50648     14.16765         0.007207     -0.010705      0.018094
Au      9.60595     12.62786     12.80662        -0.007012      0.013438      0.017494
Au     12.39643     12.00956     14.77049         0.029061      0.024421      0.081638
Au     15.01223     11.78590     11.07113        -0.001943      0.007093      0.008665
Au     14.99202     11.52702     13.86321         0.021558     -0.001184      0.013492
Au     11.30235     14.92583     11.38496         0.012452     -0.005586      0.010819
Au      9.75498     12.52994     15.57901         0.020594     -0.032409     -0.002040
Au      9.39900     12.86641     10.02237        -0.031875     -0.001298     -0.012400
Au     11.93665     11.93925     11.35167        -0.017663     -0.012102     -0.018937
Au     13.58976     13.71162     12.74851         0.017780     -0.026023      0.016647
