75
# total energy = -211.30536823 eVAu      7.95774     10.17181      4.32021        -0.012171      0.009728      0.031380
Au      5.12920      8.22216      8.33816        -0.013390     -0.014977      0.020934
Au      7.57892      9.30020      8.97657         0.029600      0.000198      0.017752
Au      7.27219      6.40621      8.09667        -0.015363     -0.013314     -0.012567
Au      8.50398      8.38182      6.40771        -0.030542     -0.020578      0.010017
Au      6.43204     10.51283      6.66112        -0.027857     -0.012166      0.023690
Au     13.94847      6.65320      6.02835        -0.008195     -0.003696     -0.002994
Au     12.66424      8.89459      4.90787         0.002086     -0.011573      0.018472
Au     15.66818      7.00310      8.29043        -0.001201     -0.012348     -0.002006
Au     12.79943      7.33906      8.50106        -0.015084      0.022604     -0.002709
Au     10.05580      8.41529      4.06393         0.016958      0.022491     -0.011613
Au     12.43205      4.71596      7.49503        -0.004830      0.013464      0.009375
Au     13.05936      9.87147      9.62672         0.009176     -0.009487     -0.007579
Au     11.01141      6.79008      6.11386        -0.001129     -0.003073      0.001009
Au     14.18395      5.09400      9.69157        -0.015173      0.022563      0.008500
Au      9.92044      7.46034      8.73455         0.020523      0.044430      0.018477
Au     14.54791      9.27912      7.01225         0.002560      0.025959      0.000621
Au     15.86100      9.48281      9.56014         0.017498     -0.013443     -0.015554
Au      9.64074      4.86874      7.80361        -0.016754     -0.020108     -0.026902
Au     11.24291      9.50462      7.26343        -0.001974      0.006512     -0.000586
Au      4.17497     13.58043      8.53608        -0.024819     -0.000526      0.004686
Au      6.16679     13.40685      6.63724         0.046239     -0.006544     -0.025048
Au      8.35254     12.75655      5.15675         0.003345      0.054587     -0.004333
Au      4.23367     10.80755      8.54510        -0.015020     -0.012385      0.000788
Au      6.47100     15.05089      8.92829         0.003791      0.011324     -0.006825
Au      6.69836     12.10433      9.14563         0.038341     -0.004242      0.014768
Au      8.68530     14.58543      7.34327        -0.042670      0.024891     -0.011768
Au     10.61064     11.05930      4.69679         0.013753     -0.000471     -0.030888
Au     13.51972     13.86877      9.96518         0.010726      0.009435     -0.043770
Au     10.90538     13.52025      5.99463         0.046710      0.015853     -0.007420
Au     13.41155     13.98518      7.15997         0.027380     -0.000232      0.021818
Au     11.17410     14.97357      8.53742         0.039915      0.000207      0.023853
Au      9.01992     11.34343      7.48933         0.000180     -0.014959      0.005392
Au     11.63285     12.12583      8.39439         0.015252      0.023121     -0.039295
Au     14.72068     11.77800      8.29535        -0.000473      0.002938     -0.009869
Au     13.07727     11.48152      5.92868         0.031687      0.030739      0.012611
Au      6.55342      8.60129     13.08443        -0.007252      0.001547      0.001445
Au      8.58073      5.25816     10.36157        -0.000941     -0.018249      0.010071
Au      5.06020      9.59237     10.91396        -0.003120     -0.050670      0.026492
Au      7.55338      6.01304     12.84435         0.013123     -0.052929      0.066947
Au      9.14430      7.88337     14.24433         0.011536     -0.019693     -0.000118
Au      6.15285      6.97323     10.62415        -0.029622      0.020190     -0.001309
Au      8.76365      8.05037     11.29580         0.021668      0.026841     -0.040879
Au     10.18329     10.11027      9.84943        -0.042618     -0.032232      0.027149
Au     14.76362      7.51759     13.69458         0.011396     -0.000765     -0.000927
Au     15.60018      7.04763     11.08140         0.019466     -0.001714      0.014837
Au     13.21582      5.77914     12.19333         0.009325     -0.024879      0.020687
Au     13.33481      9.69972     12.44812        -0.003301     -0.006314     -0.009497
Au     16.21396      9.48855     12.30847        -0.013404     -0.003762      0.013901
Au     10.35808      5.78171     12.57316         0.002145      0.013314      0.049524
Au     13.59893      9.53086     15.28916         0.009510     -0.006084     -0.002192
Au     11.68787      7.84901     11.02809        -0.025565      0.006008     -0.007209
Au     11.41338      4.97516     10.10657         0.001778     -0.033623     -0.004018
Au     10.48759      9.93271     12.69070        -0.026661     -0.012827     -0.036841
Au     11.95636      7.59609     14.05911        -0.014398     -0.000653     -0.014363
Au     10.82912      9.88474     15.44545        -0.001368     -0.010620      0.020769
Au      7.36984     13.30112     14.35958        -0.001169     -0.000269      0.003542
Au      8.95561     15.34284     12.88510        -0.010721      0.006820      0.007883
Au      4.91699     13.86984     13.21525        -0.019812      0.001298      0.011023
Au      8.90200     15.64974     10.06210        -0.003200     -0.007800      0.027421
Au      5.66867     11.20685     13.20910         0.013621     -0.013426      0.012246
Au      8.14124     10.51948     14.47999        -0.001649      0.007500     -0.020917
Au      4.36792     12.31535     10.98410        -0.005433      0.022489     -0.014661
Au      7.85172     10.81312     11.42262         0.022703     -0.028931     -0.049466
Au      7.03672     13.79555     11.44705         0.007063     -0.004238     -0.030053
Au     11.31293     14.43312     14.18019        -0.012247     -0.014400      0.056150
Au      9.59309     12.61352     12.76460         0.008984      0.006602     -0.019587
Au     12.59851     12.14523     15.17574        -0.045552      0.020441     -0.055225
Au     14.99245     11.75141     11.11706         0.001188      0.015460     -0.017933
Au     15.03417     11.52225     13.92548        -0.018273     -0.022557      0.013961
Au     11.31646     14.86071     11.39902        -0.010552      0.010652     -0.013421
Au      9.81364     12.49576     15.56016         0.024845      0.039454     -0.007469
Au      9.34435     12.87700      9.94803        -0.040738     -0.027008     -0.003991
Au     11.89411     11.91373     11.29234        -0.010197      0.015795     -0.019919
Au     13.55392     13.60053     12.79726         0.040371      0.012316      0.003529
