75
# total energy = -211.51605809 eVAu      8.29521      8.93436      4.81259        -0.003450     -0.004312      0.009777
Au      5.54252      8.25458      8.78560         0.013331      0.017080     -0.003537
Au      8.73524      7.61698      9.88136         0.003576     -0.010501      0.009451
Au      6.79194      5.73129      9.37839         0.038162      0.032113      0.018471
Au      7.39864      7.21669      6.98281        -0.002035     -0.003021     -0.003580
Au      6.56832      9.96817      6.68737        -0.010942     -0.002379      0.020411
Au     14.98125      8.56685      7.71894         0.013170      0.009059     -0.023414
Au     11.03134      9.74149      5.24095         0.015866     -0.037883      0.003781
Au     15.90297      6.72369      9.61629         0.012078     -0.010296      0.000957
Au     13.32075      8.11936      9.98424         0.001716     -0.008354      0.002625
Au     10.02492      7.04357      5.71095        -0.001553     -0.001607      0.002388
Au     11.65549      4.34722      9.06883         0.014910     -0.002417     -0.012966
Au     11.77679      5.09155      6.42573         0.001016     -0.007158      0.004327
Au     13.89381      5.85849      7.98316        -0.008475     -0.003507      0.007708
Au     11.20789      7.26206      8.36923        -0.007516     -0.005146      0.028740
Au     12.84647      7.72868      6.04160         0.023902      0.012813     -0.020600
Au      9.32757      9.28681      7.55061         0.002210     -0.012675      0.003830
Au      9.20724      5.27195      7.86011        -0.011807      0.002856      0.001755
Au      5.11562     13.85478      9.23811         0.018722      0.002995     -0.017824
Au      6.72112     12.75692      7.15949         0.007423     -0.030057      0.023927
Au      4.83790     11.06849      8.48221         0.021039     -0.007575     -0.015945
Au      7.54518     10.41155      9.43163        -0.023794      0.033079      0.015198
Au      7.32296     15.27530      8.25371         0.006912     -0.012922      0.008658
Au      7.81576     13.23043     10.18280        -0.002894      0.015856     -0.004025
Au      8.78867     11.52305      5.63445        -0.010774      0.010529      0.019326
Au     11.50817     12.34388      6.27263        -0.002879      0.002264     -0.000272
Au     12.40038     13.08023      8.89122         0.011127     -0.013926     -0.000082
Au     10.09834     14.82853      9.08018         0.002355     -0.006927      0.001672
Au      9.71083     12.00036      8.43216        -0.010629     -0.002811     -0.016748
Au     14.53547     11.19372      8.78755         0.003507     -0.012731      0.002963
Au     11.99710     10.05851      8.23664        -0.002271      0.025680     -0.008715
Au     13.64730     10.47351      6.10109        -0.018325      0.014309      0.056114
Au      9.21365     14.07134      6.55215         0.008587     -0.011551     -0.001626
Au      7.25760      9.87515     14.69039         0.011998      0.014863     -0.013907
Au      3.92284      9.47590     10.74546        -0.014966     -0.017876      0.012425
Au      4.92071      6.89753     11.18829        -0.019405      0.012894      0.014661
Au      6.76276      8.93151     11.66763         0.025096      0.000458     -0.006558
Au      8.37524      7.22649     14.82595         0.020943      0.014408     -0.047405
Au      5.70963      7.64377     13.90186        -0.026591      0.005538     -0.008066
Au      7.42176      6.06878     12.26202         0.024484     -0.003492     -0.006944
Au     10.26462      9.87777     10.39033        -0.049989      0.007027      0.013230
Au      9.12331      4.58224     10.57426        -0.003272      0.003591     -0.013035
Au     14.20256      7.38153     14.76851        -0.001906     -0.008457      0.000277
Au     15.81378      9.35190     10.58057         0.021413      0.018494      0.006389
Au     13.92653      4.95207     10.67682        -0.012999      0.026263     -0.003170
Au     12.87659      5.49923     13.26654         0.018203      0.003092      0.004413
Au     12.44394      8.42817     12.61924        -0.022171     -0.017869     -0.016610
Au     15.12438      7.01929     12.21629        -0.010027     -0.003719     -0.002452
Au      9.92557      5.33910     13.33464         0.004604      0.010962      0.009260
Au     14.94635      9.70960     13.26255         0.029014      0.018310     -0.002653
Au     12.79485      9.65849     15.24182         0.001015     -0.004351     -0.000103
Au     11.22412      6.47772     11.04405         0.007302      0.037020     -0.011341
Au     11.56372      3.66233     11.71798        -0.000868     -0.012669      0.003679
Au      9.52396      8.36187     12.59513         0.001560     -0.015024     -0.004088
Au     11.26324      7.21236     14.93216        -0.010849      0.003201      0.001884
Au      9.89069      9.56868     15.55410        -0.001485     -0.001142      0.006209
Au      6.42101     12.56386     13.93082         0.026438     -0.000921      0.004392
Au      8.34823     11.17001     12.19652        -0.031228      0.025270     -0.015350
Au      3.11483     12.17401     10.32770        -0.018477      0.012780     -0.009053
Au      5.89706     14.59263     11.92441         0.024569      0.008279      0.002942
Au      8.46132     14.39973     13.14504        -0.000528     -0.039934     -0.005851
Au      3.87296     12.89094     12.93267        -0.013119      0.016502      0.010383
Au      4.72392     10.23368     13.50388        -0.017698     -0.017240      0.006216
Au      5.72665     11.67315     11.21718        -0.003393      0.001035      0.000465
Au      8.08080     15.99072     10.85911         0.004858     -0.018062     -0.003709
Au     11.16139     13.76194     13.79720        -0.019176      0.002556     -0.013600
Au     13.05281     13.80001     11.58403        -0.003433      0.002913     -0.000326
Au     11.50729     11.96624     15.86526        -0.008852     -0.006101     -0.002714
Au     12.79963     10.81541     10.99631        -0.000856      0.026211     -0.003940
Au     10.71496     15.48711     11.71374         0.009804     -0.009002      0.002709
Au     10.96876     10.83576     13.19670         0.000783     -0.012525      0.000504
Au     15.22327     11.95996     11.52012        -0.045262     -0.010578     -0.037627
Au      8.95047     12.21782     14.88367        -0.019618     -0.011812     -0.009953
Au     10.48133     12.72787     11.08221         0.001718      0.004119      0.018970
Au     13.51891     12.08870     13.80108         0.020100     -0.035885      0.006698
