75
# total energy = -210.98341027 eVAu      7.94063     10.01924      4.19364         0.045895      0.036480     -0.013035
Au      5.21522      8.40161      8.25236        -0.008531      0.063829      0.022972
Au      7.74406      9.26458      8.98010        -0.082108      0.001952     -0.026071
Au      7.29622      6.47963      8.05715        -0.043823     -0.023529      0.046244
Au      8.61885      8.36064      6.35571        -0.002323      0.017929      0.038299
Au      6.55477     10.42476      6.62366        -0.063016      0.062874      0.020593
Au     13.97754      6.67772      6.04513        -0.019097     -0.028727     -0.039504
Au     12.70332      8.88765      4.89392        -0.045929     -0.015607     -0.000386
Au     15.69578      7.04291      8.27193        -0.016433     -0.072990      0.042627
Au     12.86570      7.34092      8.52775        -0.012947      0.033377      0.030011
Au     10.11806      8.32220      3.95788        -0.013337      0.052506     -0.023052
Au     12.40546      4.73730      7.51446        -0.026716     -0.027342      0.000471
Au     13.20573      9.85683      9.68050        -0.064594     -0.039867     -0.002137
Au     11.04193      6.76997      6.07929         0.049845     -0.023698     -0.007627
Au     14.12140      5.07782      9.70601         0.072541      0.087927     -0.005349
Au     10.01837      7.42859      8.72389         0.026803     -0.002097      0.033023
Au     14.67108      9.32969      6.92159        -0.065826      0.015505      0.045645
Au     15.99838      9.58798      9.44901        -0.052644     -0.012214      0.044798
Au      9.60999      4.88571      7.75639         0.027343     -0.030475      0.039229
Au     11.38139      9.45953      7.30703        -0.004039      0.026086      0.020903
Au      3.87089     13.75567      8.50276         0.060594      0.010209     -0.008124
Au      5.96284     13.27504      6.77224         0.008880     -0.051689     -0.090173
Au      8.16850     12.57074      5.29280        -0.045439     -0.025785      0.015863
Au      4.32137     11.02433      8.41755         0.019642     -0.060833     -0.019423
Au      6.30592     14.91927      9.09144        -0.055678      0.076830      0.065370
Au      6.86672     12.04351      9.18897        -0.049927     -0.033072      0.007113
Au      8.48997     14.40470      7.48850         0.091969     -0.005287     -0.026866
Au     10.53419     10.94080      4.79767        -0.027875     -0.009145      0.012001
Au     13.50577     13.96283      9.90927         0.022068     -0.014567      0.010493
Au     10.74138     13.38836      6.13227         0.019775     -0.002795     -0.055586
Au     13.30269     14.02439      7.11704         0.031484     -0.030223      0.043202
Au     11.05385     14.91118      8.56877         0.016278      0.031919      0.016452
Au      9.16029     11.25641      7.56247         0.028481      0.067232     -0.003293
Au     11.75094     12.07533      8.49735         0.011680      0.065758     -0.052521
Au     14.73140     11.83331      8.23068         0.022236      0.022877     -0.019682
Au     13.03447     11.48190      5.93415         0.018890     -0.004422     -0.019554
Au      6.55601      8.68570     12.99221         0.006721     -0.129283      0.000711
Au      8.56511      5.27530     10.33622        -0.022615     -0.004025     -0.029451
Au      5.12911      9.79387     10.80939         0.002435     -0.018885     -0.034825
Au      7.46700      6.02332     12.81187         0.004983      0.101048     -0.067517
Au      9.05404      7.83158     14.26534        -0.000990     -0.020417     -0.013525
Au      6.18083      7.15590     10.56551         0.043874     -0.097861      0.021483
Au      8.87507      8.01311     11.29849        -0.058526     -0.062561      0.166309
Au     10.33968     10.04693      9.92478         0.054961      0.041773      0.003081
Au     14.68730      7.47516     13.70712         0.068445      0.027641     -0.058452
Au     15.22648      7.28112     10.99805         0.137237     -0.094811      0.056048
Au     13.13116      5.65927     12.25827         0.032510      0.013951     -0.043073
Au     13.37736      9.67753     12.46552        -0.037455     -0.009915     -0.006987
Au     16.20224      9.57083     12.25522        -0.008102     -0.106866      0.004433
Au     10.27524      5.72215     12.60700         0.022063     -0.034967     -0.050621
Au     13.49106      9.47298     15.26626         0.050241      0.028466      0.023286
Au     11.76267      7.79109     11.07686         0.010681      0.052422     -0.062772
Au     11.36143      4.83217     10.14922        -0.031364      0.087466     -0.019873
Au     10.55483      9.91640     12.77570        -0.016050     -0.042066     -0.022948
Au     11.86839      7.46789     14.13515         0.010184      0.070354     -0.017209
Au     10.68445      9.74888     15.54331         0.004095      0.037425     -0.011762
Au      7.37953     13.32666     14.44007        -0.047394      0.059494     -0.009200
Au      8.99418     15.39072     12.95294        -0.059228      0.004294     -0.002164
Au      4.92708     13.98680     13.27590         0.101967     -0.116390     -0.088296
Au      8.79871     15.59413     10.12273        -0.026998     -0.002751      0.005074
Au      5.76255     11.33879     13.10530        -0.087432      0.083855     -0.010471
Au      8.09845     10.50919     14.51200         0.042759      0.010568      0.015928
Au      4.49051     12.55338     10.88542         0.017162      0.004790      0.106148
Au      8.00167     10.77502     11.46329         0.002623      0.008289     -0.021279
Au      7.12030     13.73410     11.57176        -0.050892      0.022916     -0.005230
Au     11.35413     14.51446     14.18195        -0.023596      0.011138      0.034923
Au      9.65650     12.63151     12.84867        -0.027022      0.008895      0.003303
Au     12.31228     11.91533     14.55896         0.009533      0.011801      0.037542
Au     15.06408     11.87033     11.03993        -0.058518     -0.013035      0.022398
Au     15.00791     11.58426     13.84719        -0.002450     -0.028121      0.033858
Au     11.32240     14.98344     11.40570         0.002822     -0.056063     -0.035108
Au      9.76799     12.47928     15.62074         0.023287      0.032401      0.014691
Au      9.44991     12.84244     10.04360         0.033761     -0.021731     -0.019267
Au     11.97389     11.93194     11.37545         0.008818     -0.010975     -0.055124
Au     13.62400     13.76141     12.71385        -0.006652     -0.007190     -0.006988
