75
# total energy = -211.52916925 eVAu      8.29767      8.92655      4.83215        -0.001863     -0.003232     -0.011940
Au      5.55184      8.26844      8.79619        -0.013336     -0.010227     -0.004275
Au      8.76399      7.61363      9.88579        -0.011579     -0.028867     -0.006623
Au      6.80333      5.75368      9.39669         0.000019     -0.011347     -0.001468
Au      7.39467      7.21055      6.98333        -0.009039     -0.000848      0.015406
Au      6.55571      9.96513      6.68729         0.000740     -0.011855      0.004297
Au     15.00474      8.55671      7.70741         0.013366     -0.003254     -0.009027
Au     11.03676      9.72031      5.26165         0.007474      0.003928      0.010178
Au     15.91650      6.71564      9.61511         0.015121     -0.000707     -0.004735
Au     13.34404      8.13163      9.97433        -0.017681      0.000122      0.004747
Au     10.03057      7.03419      5.72072         0.010841      0.002212     -0.002175
Au     11.66888      4.33792      9.06721        -0.009215     -0.000676     -0.007145
Au     11.78604      5.08546      6.42890        -0.003108     -0.000532     -0.010958
Au     13.90094      5.85599      7.98618         0.009779     -0.000568     -0.001572
Au     11.22484      7.26331      8.36889         0.006771     -0.005761      0.002112
Au     12.86934      7.72217      6.03908        -0.011342      0.004892     -0.007633
Au      9.31719      9.27712      7.56830        -0.004192      0.012340     -0.006054
Au      9.21032      5.27459      7.86679         0.013393      0.004741     -0.002609
Au      5.11348     13.86342      9.23168        -0.003887      0.000962      0.001963
Au      6.71891     12.75095      7.16483         0.013676      0.001261      0.014231
Au      4.82502     11.07522      8.47737        -0.016397     -0.008877     -0.001884
Au      7.51412     10.43777      9.42642        -0.006258      0.000819     -0.017512
Au      7.32590     15.27500      8.25147         0.006048     -0.000646     -0.004680
Au      7.80452     13.24183     10.18269        -0.005312      0.008102     -0.001246
Au      8.78161     11.51735      5.64337         0.016532     -0.007799     -0.002114
Au     11.49976     12.34033      6.27239         0.001236     -0.006755     -0.002839
Au     12.39991     13.05966      8.89674         0.011544     -0.007928     -0.000558
Au     10.10417     14.82243      9.08050         0.009600      0.012753     -0.007029
Au      9.69306     12.00783      8.42623         0.007482      0.003473      0.000192
Au     14.54473     11.17123      8.79120        -0.024458     -0.008292      0.008604
Au     11.97500     10.06824      8.25734         0.001235      0.001396     -0.000273
Au     13.64162     10.48041      6.13682        -0.011593     -0.005524     -0.001766
Au      9.21535     14.07081      6.54926        -0.001326      0.003864     -0.012076
Au      7.25823      9.88098     14.66991        -0.006295     -0.005657      0.013191
Au      3.91527      9.48214     10.75126        -0.010619      0.007623     -0.000408
Au      4.91100      6.91150     11.19563         0.013779      0.004195      0.006188
Au      6.78344      8.93150     11.66194        -0.006734      0.002663      0.000681
Au      8.37339      7.23585     14.79645         0.003023     -0.009339      0.006139
Au      5.69566      7.65313     13.89394         0.008024     -0.001577     -0.013354
Au      7.43184      6.08037     12.25582         0.011508     -0.017945      0.001208
Au     10.20615      9.92100     10.39564         0.007785      0.034208     -0.011313
Au      9.14021      4.58355     10.57296        -0.016905      0.009169      0.002483
Au     14.20922      7.37318     14.76431         0.003638      0.004772      0.010727
Au     15.84083      9.34611     10.58235         0.014862     -0.001165      0.002051
Au     13.93476      4.95018     10.67538         0.003270      0.009393     -0.002837
Au     12.88935      5.49012     13.26572        -0.002816      0.008012      0.011161
Au     12.45740      8.42743     12.61050         0.006912     -0.008548     -0.004117
Au     15.12894      7.01614     12.21144         0.008896     -0.001710     -0.001697
Au      9.94095      5.33891     13.32605        -0.017609      0.010805      0.004261
Au     14.96767      9.70219     13.25667        -0.006240      0.011214      0.008641
Au     12.79651      9.64500     15.23673         0.010292      0.001005     -0.005209
Au     11.25438      6.47394     11.03611         0.011117      0.019688     -0.007209
Au     11.57368      3.65363     11.71766         0.006338     -0.009884      0.000068
Au      9.54711      8.35259     12.57887        -0.005639     -0.021717      0.025757
Au     11.26267      7.21175     14.92466         0.010446      0.001768     -0.005794
Au      9.88745      9.56344     15.55924        -0.017067     -0.008338     -0.005095
Au      6.41125     12.57436     13.93696        -0.010090     -0.005932      0.012918
Au      8.32100     11.19970     12.20221         0.003110      0.009765      0.016463
Au      3.10560     12.18605     10.32160        -0.014694      0.012302      0.004852
Au      5.89771     14.60306     11.92608        -0.005107      0.000897     -0.000876
Au      8.45803     14.39196     13.14568         0.006814     -0.007960     -0.019350
Au      3.86618     12.90500     12.93644        -0.017719      0.010413     -0.002800
Au      4.71315     10.23746     13.49997        -0.009345      0.006415      0.000939
Au      5.70693     11.68389     11.21970        -0.008027     -0.006827      0.003370
Au      8.08547     15.98998     10.85947         0.006320      0.003193      0.000994
Au     11.15274     13.75413     13.79695         0.015967     -0.008103     -0.004150
Au     13.04633     13.79850     11.58982         0.003729     -0.004288      0.005028
Au     11.50005     11.95003     15.85308         0.007282      0.001760      0.012695
Au     12.76957     10.81706     10.98863         0.001521      0.000601     -0.002016
Au     10.71844     15.48822     11.71556         0.005347      0.007694      0.008912
Au     10.95215     10.82032     13.19407        -0.002887      0.018021     -0.000532
Au     15.19970     11.95032     11.49388        -0.007924     -0.002203      0.010697
Au      8.94014     12.21612     14.89026        -0.002315     -0.011957      0.001199
Au     10.46905     12.73898     11.09143         0.004520      0.002191     -0.004133
Au     13.51703     12.06010     13.79366        -0.000740     -0.001783     -0.013267
