75
# total energy = -211.38834231 eVAu      8.68129      8.96621      5.91897         0.011952      0.005094      0.008917
Au      6.35121      8.07138      9.72209        -0.001693      0.003050      0.001483
Au      9.35517      8.28061      8.78921        -0.008849      0.000237     -0.007691
Au      7.53683      6.63866      7.52193        -0.005792      0.002504     -0.001920
Au      6.06828      8.94835      7.06108        -0.002300     -0.001528      0.006509
Au      9.49935      6.24987      5.62198         0.012425      0.005510     -0.021841
Au     16.73253      7.43005      8.37311         0.003619     -0.002180     -0.006770
Au     10.99489      8.76225      4.23815        -0.004578     -0.006641     -0.000323
Au      9.99209      5.23742      8.24217         0.012599      0.004581     -0.009363
Au     16.47381     10.22747      8.84516         0.010664     -0.006155      0.004980
Au     11.48509      7.82520      6.87343        -0.011777      0.007444      0.001755
Au     12.04789      5.01178      6.35790         0.002849     -0.003647     -0.008143
Au     15.40865      5.15351      9.61839        -0.001727     -0.011507     -0.005816
Au     11.64813      6.08472      3.86104         0.005349     -0.003730     -0.001071
Au     14.15698      6.59319      7.49291         0.006297     -0.007122      0.007852
Au     11.96644      7.13226      9.57130        -0.005439      0.001133     -0.007781
Au     13.61648      7.68782      4.92156         0.002141     -0.001118     -0.002720
Au     12.73994      4.49327      8.96389        -0.011757      0.007881     -0.001461
Au     15.41062      9.04692      6.49480        -0.000604     -0.002301      0.000124
Au     13.29053      9.39266      8.34079        -0.009573      0.008865     -0.001102
Au      4.35562     13.12623      8.80074         0.008046     -0.004540      0.003067
Au      6.83222     13.60392      7.52988         0.000184      0.003018      0.002846
Au      7.67524     11.60431      5.62334         0.006569     -0.000383     -0.001748
Au      5.14776     11.51752      6.70989        -0.005284     -0.001763      0.006999
Au      7.83123     10.76787      8.31701        -0.027037      0.012353      0.009398
Au      4.86647     10.39037      9.25774         0.002135      0.000949      0.001022
Au      8.68068     14.92484      9.14971         0.005703      0.016177      0.000313
Au      9.51821     13.36291      6.84796         0.002304      0.000241     -0.000071
Au     10.35965     11.34985      4.96743        -0.003429     -0.004444      0.009625
Au     12.26051     12.88124      6.44772        -0.007255      0.006002     -0.016616
Au     14.75561     11.72841      7.18375         0.006652     -0.003382      0.008274
Au     11.38493     14.57007      8.57469         0.002091      0.004641     -0.010398
Au     10.68257     10.52980      7.58170        -0.008418      0.001931     -0.012464
Au     12.63180     12.11860      9.09095         0.006672      0.005193     -0.010494
Au      9.74217     12.30999      9.72489         0.010213      0.000636      0.004584
Au     13.01984     10.38006      5.41825         0.004434     -0.015164      0.003645
Au      7.54974      9.88091     14.04113         0.015469      0.002688      0.003642
Au      8.05304      5.85858     10.17221        -0.004892     -0.007583      0.004152
Au      8.70874      5.33254     12.84838         0.005006      0.001947      0.004722
Au      8.34726      9.98900     10.99770        -0.004791      0.002807      0.002860
Au      9.23289      7.60294     14.41495         0.012173      0.001012      0.000678
Au      7.14212      7.59981     12.39341        -0.004530     -0.015313     -0.000575
Au     11.18615      9.85373     10.28871        -0.014509      0.000929      0.004826
Au     17.31431      8.41695     10.93390         0.007977      0.004997     -0.003085
Au     14.63657      7.78887     10.23292        -0.001148     -0.008887     -0.004977
Au     14.01301      6.63824     14.04979         0.002563     -0.013071      0.002255
Au     13.42538      5.10010     11.66637         0.012793     -0.004970     -0.008354
Au     16.01355      6.21004     12.15887        -0.008160     -0.001660      0.007224
Au     10.72018      4.78398     10.93203         0.010187     -0.006395     -0.006470
Au     15.36543      8.89604     13.02034         0.002799      0.000450      0.004124
Au     11.95176      8.30811     15.00770        -0.001252      0.004897      0.002637
Au     12.63302      8.21361     12.20212         0.004052     -0.006914      0.002935
Au     10.45292      9.95943     13.06515         0.004877     -0.002530     -0.005910
Au     11.38773      5.85286     13.50252        -0.002202      0.007068      0.010121
Au      9.91333      7.57546     11.54832         0.006744      0.016070      0.008257
Au      9.83146      9.99402     15.77397         0.002286      0.009362      0.003320
Au      6.20718     12.25450     13.42564        -0.009190     -0.007484      0.000165
Au      8.95003     12.37438     12.47820        -0.000439      0.000140      0.011367
Au      6.00015     15.02450      9.92206         0.006481      0.014117     -0.022193
Au      4.34104     12.26665     11.41474        -0.014073     -0.024079      0.006080
Au      5.64534      9.86404     11.88640        -0.011051     -0.004501     -0.002620
Au      8.34857     12.35172     15.23213        -0.003148     -0.000155     -0.001176
Au      6.96854     12.46048     10.46076        -0.022174      0.007958     -0.007291
Au      7.87405     15.00429     11.92383         0.004991      0.005533     -0.009879
Au     12.46018     14.37180     13.38889         0.007093      0.007599      0.002569
Au     13.28404     14.38862     10.64895         0.008163     -0.005655      0.022432
Au     14.59301     12.72792     12.59210        -0.002407      0.002647     -0.007064
Au     13.93748     10.42333     10.99586         0.009610     -0.009452      0.002580
Au     13.33218     10.59795     14.00575        -0.006351     -0.004701      0.000235
Au      9.69830     14.59952     14.01070        -0.003987      0.009697      0.002372
Au     10.58864     14.97360     11.28950         0.018401     -0.006329      0.003543
Au     11.17182     12.25113     14.73257        -0.024909      0.011497      0.004426
Au     15.35426     12.69173      9.74469        -0.005402     -0.008860      0.007036
Au     11.76714     12.16488     11.85658        -0.009906     -0.013028      0.006724
Au     16.60301     11.00673     11.62269         0.005470      0.018315     -0.005291
