75
# total energy = -211.40451598 eVAu     14.96848     17.00399      9.24336         0.009067      0.014140      0.006005
Au     16.02864     15.09292     14.44873        -0.000867     -0.002411      0.013508
Au     11.65300     19.17414     12.08081         0.025339      0.000123      0.006339
Au     21.12705     12.36716     11.72197        -0.014542     -0.028748      0.000516
Au     17.41403     15.66174      9.64178        -0.006491     -0.007183      0.001210
Au     17.04285     18.30828     10.65460         0.007080      0.011316     -0.010526
Au     22.11738     12.93610     14.32999        -0.013625      0.043078      0.003418
Au     13.44531     14.79652     10.21275        -0.000018     -0.019156     -0.021121
Au     15.15684     10.09284     14.32177        -0.006396     -0.001559     -0.003607
Au     19.31466     12.74858     13.90043         0.004179      0.001043      0.016244
Au     12.26701     17.40214     10.01586        -0.003325      0.004941      0.016914
Au     19.07623     19.39042     12.31096        -0.017787     -0.000155      0.012416
Au     15.88801     13.37987     10.49834        -0.018631     -0.004453     -0.017525
Au     16.92222      9.94526     12.16195        -0.004300      0.003925      0.004407
Au     10.97698     13.92806     13.70788         0.003833     -0.010536      0.017782
Au     18.34853     12.03810     10.96029         0.011678     -0.005135      0.010339
Au      9.91525     16.54526     13.50031        -0.004396     -0.025137      0.010274
Au      9.74882     19.48026     14.00197        -0.029601     -0.070004     -0.023905
Au     13.96153     13.89704     12.87818        -0.023230      0.016118     -0.009513
Au     12.56196     11.46459     13.85318        -0.021312     -0.008759     -0.008390
Au     19.65236     10.17485     12.73093         0.007547      0.012592     -0.021105
Au     12.68758     16.50163     12.66112        -0.014487      0.019151     -0.006887
Au     16.51680     12.46703     13.26956         0.001786      0.029433      0.000560
Au     16.40582     19.97318     12.92341         0.028139      0.003255     -0.011494
Au     19.82889     14.29925     10.20296        -0.014547     -0.005580      0.013012
Au     13.73370     20.32324     13.64015         0.008072     -0.009420      0.025114
Au     11.98817     12.64130     11.36284         0.005430      0.003230     -0.006574
Au     15.43880     16.10266     11.82569        -0.021705     -0.010083     -0.001932
Au     10.72529     15.19499     11.17461        -0.001914      0.016862      0.000489
Au     17.50447     17.31099     13.35785         0.002546      0.018381     -0.010772
Au     21.14818     15.02733     12.69673        -0.006596      0.015161      0.006469
Au     14.42576     11.22359     11.71048         0.018559      0.004476     -0.006247
Au     14.75579     17.68229     14.18661        -0.012546      0.052274     -0.007121
Au     20.49374     17.49822     13.87471         0.007633     -0.000389     -0.010378
Au     17.96850     14.65672     12.27603        -0.018517     -0.011535     -0.001556
Au     19.56994     16.87731     11.21013        -0.005331      0.016897     -0.009859
Au     14.31486     18.97280     11.22001         0.009465      0.010866      0.009877
Au     12.35968     19.46892     18.78897         0.016949     -0.026448     -0.008557
Au     12.41359     14.79978     18.17784         0.010527      0.011822     -0.000576
Au     17.76613     19.22237     17.76786         0.011144      0.014779      0.005276
Au     13.93225     17.56604     16.91843        -0.021584      0.004489     -0.024963
Au      9.11612     17.56034     15.93874        -0.022850     -0.022401      0.034065
Au     18.50603     19.42368     15.03976         0.010796     -0.003328      0.001785
Au     19.01677     17.20127     19.27584         0.018767      0.003971      0.024852
Au     19.54455     13.23618     19.19879         0.014342      0.004659     -0.001745
Au     21.63786     15.41502     15.49044        -0.007154     -0.009992      0.025295
Au     20.66228     10.70655     15.31222        -0.035159      0.004142      0.029083
Au     18.91376     11.20455     17.42462         0.009694     -0.000444      0.013101
Au     18.87905     15.30856     14.93411         0.005006     -0.006754      0.015619
Au     18.13669     15.14957     17.60087         0.038610     -0.013978      0.040674
Au     21.23120     12.91637     16.99137        -0.060508      0.025629     -0.031059
Au     16.10519     10.68937     16.98870        -0.000101     -0.001460     -0.005915
Au     20.94446     15.44270     18.16144         0.001881     -0.017920      0.003255
Au     10.36402     15.16006     16.15695        -0.009092     -0.018391     -0.002260
Au     17.58788     14.95161     20.33136         0.008008      0.004661      0.026143
Au     15.09492     19.68213     18.37630         0.006012     -0.020610      0.019605
Au     10.53377     19.80305     16.72924         0.018226     -0.024064     -0.036169
Au     10.97153     17.18840     18.00328         0.005036      0.018093     -0.023864
Au     17.40910     13.05756     15.94375         0.012283     -0.000091     -0.004990
Au     17.92567     10.09305     14.94400        -0.012300      0.009989      0.009111
Au     15.86804     20.10929     15.68290         0.009383     -0.006015      0.009480
Au     15.29375     14.99891     17.17827        -0.003724      0.001722     -0.011923
Au     16.15935     17.21136     19.27458         0.001097     -0.014456     -0.033533
Au     13.34493     17.00791     19.62310         0.034452      0.018588     -0.007219
Au     12.03170     18.19184     14.87701         0.016888      0.009032     -0.024339
Au     13.34573     10.49160     16.40856        -0.005969     -0.017034      0.001415
Au     13.10189     15.44844     15.26398         0.007243     -0.033194      0.008782
Au     14.03625     12.49007     18.23951         0.010743     -0.013648      0.008523
Au     16.78295     12.70047     18.85048         0.011886     -0.009285      0.001474
Au     11.82901     12.83003     16.25253        -0.014104      0.009221     -0.006004
Au     14.58320     12.82839     15.42245        -0.023387      0.014167     -0.014916
Au     14.83082     14.64812     19.87504         0.003461      0.009180      0.008054
Au     16.79390     17.21075     16.17371         0.004073      0.004344     -0.013946
Au     19.89798     17.55483     16.63239         0.015783     -0.008555      0.001917
Au     13.19956     20.46744     16.32871         0.023455      0.022564     -0.021918
