75
# total energy = -211.36556707 eVAu      8.66141      8.96515      5.89159         0.014448     -0.004788      0.010296
Au      6.36115      8.14000      9.69189        -0.015438      0.009153      0.006036
Au      9.37779      8.27814      8.79432         0.010224     -0.011980     -0.016458
Au      7.54092      6.69760      7.48548         0.006437     -0.020286     -0.005847
Au      6.05672      9.01167      7.03233        -0.022509      0.006938     -0.007859
Au      9.52666      6.27170      5.59324        -0.024392     -0.013394      0.009703
Au     16.75597      7.42567      8.37239        -0.009309      0.001881      0.002194
Au     10.98946      8.72801      4.24859        -0.002403      0.022678     -0.006600
Au      9.99673      5.27773      8.23329         0.005378     -0.015524     -0.024239
Au     16.48674     10.23232      8.84462         0.005279     -0.001850      0.012550
Au     11.51070      7.80480      6.87739        -0.006655      0.023262      0.025756
Au     12.06224      4.99821      6.36000        -0.004571     -0.004280      0.007434
Au     15.41140      5.12513      9.61927        -0.006150      0.013299      0.001328
Au     11.70114      6.06765      3.85950        -0.017707     -0.016165     -0.014915
Au     14.19150      6.56940      7.48746        -0.007051     -0.008381      0.007976
Au     11.99098      7.11225      9.57088        -0.010633     -0.006755     -0.009287
Au     13.64283      7.69004      4.92887         0.003624      0.005450     -0.005283
Au     12.74060      4.47062      8.96572        -0.010025      0.020436     -0.011462
Au     15.43437      9.04918      6.49887        -0.012136     -0.002129     -0.004780
Au     13.31341      9.37884      8.33862        -0.002266      0.010990     -0.013932
Au      4.21266     13.15766      8.71858         0.010539     -0.014430     -0.005755
Au      6.75991     13.56814      7.55690         0.011626      0.001438     -0.003958
Au      7.59906     11.57632      5.64290        -0.010028      0.001021     -0.012471
Au      5.03896     11.54341      6.65704         0.010239     -0.021235      0.004412
Au      7.85701     10.75631      8.33202        -0.007488      0.010996     -0.003905
Au      4.85333     10.45254      9.23300         0.017990     -0.008998     -0.011782
Au      8.61217     14.86131      9.19094         0.004341      0.013705     -0.006096
Au      9.45386     13.31406      6.88258        -0.007414      0.006602     -0.009040
Au     10.29438     11.30970      4.98956         0.026319      0.000314     -0.005630
Au     12.20391     12.86114      6.45484         0.012844     -0.006123     -0.009181
Au     14.74868     11.72625      7.18226        -0.006043      0.000121     -0.005417
Au     11.33374     14.54187      8.58945         0.005052      0.013192      0.000716
Au     10.69996     10.50610      7.59299         0.007334     -0.002148     -0.018790
Au     12.65225     12.11214      9.09244        -0.001777      0.003712     -0.023229
Au      9.78839     12.28101      9.75117         0.007445      0.014267     -0.004525
Au     12.98786     10.36127      5.45100        -0.002392      0.003161     -0.015842
Au      7.57611      9.93646     14.00062        -0.009224     -0.012116      0.010569
Au      8.04555      5.90970     10.14620        -0.006111     -0.014989      0.013594
Au      8.69597      5.36112     12.82833         0.004969      0.000475      0.003979
Au      8.39312      9.98258     11.01533        -0.002239     -0.010161      0.016472
Au      9.23629      7.62286     14.40755        -0.003192     -0.015386     -0.009328
Au      7.14761      7.64716     12.36851        -0.013110      0.001013     -0.001830
Au     11.22771      9.83118     10.29390        -0.008885     -0.011277      0.012302
Au     17.31575      8.42221     10.93366         0.014035      0.008842      0.000309
Au     14.65314      7.77051     10.21922         0.017769     -0.007047      0.004143
Au     14.02092      6.61935     14.05832        -0.011732     -0.002093     -0.003206
Au     13.42204      5.08953     11.66575         0.021336      0.000200      0.004277
Au     16.01038      6.20523     12.15234        -0.004533     -0.010337      0.014371
Au     10.71358      4.78154     10.92470        -0.000180      0.001392     -0.004247
Au     15.36970      8.89770     13.02611         0.001795     -0.004337      0.014634
Au     11.96378      8.30016     15.02006         0.002457     -0.010005     -0.007677
Au     12.66373      8.19252     12.20345         0.005771     -0.000006      0.021536
Au     10.50560      9.94323     13.07678        -0.009133      0.006593     -0.011562
Au     11.38699      5.84676     13.50389        -0.011209      0.015605      0.005151
Au      9.94258      7.57152     11.55304         0.000377      0.003117      0.008030
Au      9.83584     10.00626     15.77036        -0.007324      0.010495      0.015722
Au      6.23522     12.33766     13.39547         0.002402     -0.009732      0.007517
Au      9.00978     12.36689     12.51851        -0.000343     -0.000864     -0.006888
Au      5.91121     14.92054      9.97968         0.013545      0.013962      0.004289
Au      4.39433     12.37849     11.35406        -0.005128     -0.005876      0.011370
Au      5.66296      9.94366     11.85247         0.005274     -0.020382      0.003490
Au      8.33691     12.37620     15.25490         0.010040     -0.002267      0.007434
Au      7.03955     12.43129     10.47209        -0.024353      0.007844     -0.010945
Au      7.81974     14.95808     11.96272        -0.000979     -0.000135      0.005266
Au     12.45355     14.37835     13.38669        -0.001503      0.004820     -0.002447
Au     13.26643     14.37925     10.65283         0.000054      0.011845      0.010455
Au     14.60163     12.72898     12.59939        -0.002150     -0.004301     -0.013897
Au     13.96677     10.40760     10.98942         0.026751      0.009376      0.018080
Au     13.33549     10.60081     14.02471         0.011361     -0.007871     -0.010819
Au      9.68888     14.63396     14.02987         0.006150     -0.004544      0.012950
Au     10.54657     14.93232     11.30508         0.029576      0.010302     -0.005427
Au     11.16537     12.26928     14.73695        -0.002960     -0.001102      0.004766
Au     15.36013     12.69434      9.74627        -0.000391     -0.004265      0.019639
Au     11.81391     12.13801     11.86916        -0.011092      0.015097      0.016681
Au     16.62061     11.01591     11.62766        -0.010627      0.013962     -0.010868
