75
# total energy = -211.36147042 eVAu      8.28961      8.96569      4.75878        -0.015939     -0.028202     -0.007029
Au      5.56431      8.21771      8.81048        -0.012386      0.047672     -0.003369
Au      8.64400      7.64595      9.84978         0.045750     -0.022684      0.053908
Au      6.77534      5.70956      9.36871        -0.038678     -0.034197     -0.005431
Au      7.38797      7.20601      6.94506         0.014169      0.022521      0.020303
Au      6.60446      9.92882      6.70808        -0.035052      0.026916      0.006549
Au     14.92589      8.63308      7.72154         0.031379     -0.023311     -0.002411
Au     11.05640      9.75668      5.15820        -0.032073     -0.016738      0.040085
Au     15.84139      6.79746      9.61398         0.079053     -0.064490     -0.005863
Au     13.25749      8.09652     10.00869        -0.029104      0.006093      0.006203
Au     10.00003      7.07019      5.66827         0.010093     -0.006301      0.017260
Au     11.58913      4.37526      9.05936         0.035906      0.000575      0.005554
Au     11.72806      5.12824      6.42256         0.017761     -0.043350     -0.029229
Au     13.83294      5.93223      7.96689         0.020439     -0.048813      0.023527
Au     11.14553      7.26190      8.36075         0.024276     -0.003896      0.059997
Au     12.82312      7.77686      6.01496         0.000133     -0.028634      0.002029
Au      9.34894      9.28729      7.51266         0.008428      0.000217     -0.022755
Au      9.15275      5.24557      7.80340         0.032927      0.015986      0.021122
Au      5.15429     13.81178      9.23852        -0.036723      0.003362     -0.003918
Au      6.83749     12.67612      7.27028        -0.040089      0.015563     -0.040873
Au      4.87230     10.99689      8.52221        -0.016691      0.028563     -0.022875
Au      7.60850     10.40132      9.45015        -0.014829      0.014650      0.007152
Au      7.36702     15.25339      8.24674        -0.026458      0.009767     -0.015897
Au      7.85337     13.20774     10.17837         0.019265      0.000300     -0.005765
Au      8.83626     11.51155      5.62514        -0.036677      0.021909      0.020147
Au     11.53005     12.36232      6.22121         0.011291      0.005179      0.067461
Au     12.44161     13.12479      8.86637        -0.023608     -0.046790      0.020437
Au     10.12405     14.81203      9.07744         0.011577      0.006670     -0.006005
Au      9.78406     11.96021      8.44309        -0.032899     -0.003374     -0.041956
Au     14.57258     11.26892      8.75576        -0.056330      0.001539      0.016392
Au     12.03090     10.06387      8.22294         0.019367      0.010531     -0.043344
Au     13.65167     10.53517      6.09542        -0.000187      0.000350     -0.014193
Au      9.27163     14.05405      6.55156        -0.027019      0.027147     -0.001581
Au      7.26974      9.82723     14.67728        -0.015075      0.045146     -0.014556
Au      3.89095      9.42753     10.77087         0.032096      0.009688     -0.027371
Au      4.90710      6.85506     11.20488         0.008819      0.025706      0.000030
Au      6.71494      8.93347     11.68108         0.051896     -0.038622     -0.003627
Au      8.36978      7.21401     14.85182        -0.027979     -0.021699      0.040618
Au      5.69558      7.59944     13.91680         0.005140      0.021700     -0.015819
Au      7.41905      6.04267     12.26970         0.019661      0.037699     -0.015980
Au     10.39155      9.70448     10.40102        -0.078406      0.068142      0.004004
Au      9.06556      4.55026     10.53090         0.029285      0.019841      0.038580
Au     14.15857      7.42072     14.77754         0.033929     -0.025779      0.033553
Au     15.75572      9.41614     10.57505         0.030529     -0.024647     -0.002501
Au     13.80521      5.09099     10.67418         0.034819     -0.044256      0.003992
Au     12.82111      5.53685     13.29398         0.027455     -0.006062     -0.023403
Au     12.39468      8.44097     12.65602        -0.008818     -0.034576     -0.054386
Au     15.07090      7.10082     12.22326         0.012444     -0.056459     -0.004835
Au      9.90271      5.34068     13.41034         0.003469     -0.005547     -0.052379
Au     14.93321      9.76798     13.27110         0.003416     -0.027225      0.011398
Au     12.79233      9.70457     15.27201         0.001871     -0.016554     -0.016998
Au     11.07719      6.52140     11.07510         0.058693      0.054618     -0.032320
Au     11.49056      3.73012     11.72086         0.026412     -0.059923      0.009552
Au      9.45859      8.41463     12.65034         0.014551     -0.049725     -0.051752
Au     11.24964      7.22391     15.01301         0.014622     -0.001654     -0.039739
Au      9.90238      9.57848     15.59288        -0.002070      0.008409     -0.031305
Au      6.44132     12.47772     13.91777        -0.007200      0.037590      0.013232
Au      8.39501     11.14350     12.15584        -0.018751      0.011039     -0.004035
Au      3.13240     12.14416     10.33129         0.006178      0.006937     -0.020851
Au      5.93551     14.54984     11.92598        -0.029175      0.008786      0.018512
Au      8.51679     14.26016     13.04475        -0.016316      0.039763      0.042614
Au      3.89050     12.85931     12.93713         0.015707      0.014907      0.007505
Au      4.69095     10.18306     13.52424         0.040669      0.018831     -0.001372
Au      5.74089     11.63566     11.22329        -0.026968      0.018755      0.002904
Au      8.12510     15.96863     10.85220        -0.017003      0.019771      0.021163
Au     11.20949     13.75037     13.78568        -0.047603      0.012470     -0.004569
Au     13.09406     13.83823     11.60048        -0.025261     -0.030053     -0.056019
Au     11.52660     12.01967     15.89191        -0.006496     -0.017836      0.025919
Au     12.83524     10.82217     10.98645         0.035765      0.026564      0.017084
Au     10.76662     15.46417     11.69344        -0.025489      0.029349      0.000827
Au     11.00662     10.85162     13.21346         0.019333      0.009623      0.010652
Au     15.22146     12.01648     11.49196         0.007625      0.004471      0.011175
Au      8.97725     12.16765     14.86904        -0.037022      0.025792     -0.000311
Au     10.54419     12.67688     11.05619        -0.006518      0.020264      0.050160
Au     13.58093     12.13847     13.84053        -0.045306     -0.029973     -0.004975
