75
# total energy = -211.01919586 eVAu      7.93798     10.02794      4.21076         0.059296      0.015113     -0.032104
Au      5.20834      8.39921      8.26172        -0.027289      0.026560      0.031634
Au      7.73469      9.26730      8.97789         0.011853      0.004533      0.030748
Au      7.29436      6.48479      8.06377        -0.025256     -0.054666      0.062166
Au      8.59863      8.34553      6.35129         0.025873      0.022825      0.030639
Au      6.55239     10.42854      6.64252        -0.069431      0.066262     -0.037977
Au     13.97385      6.66700      6.04467         0.000826     -0.014466     -0.029288
Au     12.71290      8.88063      4.89262        -0.053272      0.013042      0.038416
Au     15.70051      7.03785      8.27341        -0.021191     -0.086927      0.062507
Au     12.86922      7.35873      8.52507         0.001062     -0.023368     -0.028122
Au     10.12503      8.33284      3.96267        -0.043767      0.045792     -0.007055
Au     12.39931      4.75205      7.51150         0.005888     -0.060092      0.041199
Au     13.20086      9.85384      9.67922        -0.036455      0.045916     -0.024544
Au     11.03618      6.76812      6.08440         0.029304      0.008475     -0.060188
Au     14.12231      5.08872      9.70219         0.083295      0.091473     -0.016833
Au     10.02372      7.43018      8.71809        -0.032343      0.001962      0.072024
Au     14.67641      9.31776      6.92897        -0.087015      0.044809      0.034847
Au     15.99902      9.56856      9.46109        -0.082199     -0.008232      0.036793
Au      9.60975      4.87681      7.76065        -0.000685     -0.000046      0.058481
Au     11.36095      9.46290      7.29383         0.015462      0.047010      0.024531
Au      3.89565     13.75869      8.51602         0.047446     -0.022498     -0.015821
Au      5.97435     13.27671      6.76875         0.020264     -0.014303     -0.077945
Au      8.17736     12.58395      5.28173        -0.053252     -0.014805      0.026927
Au      4.31833     11.01719      8.42656        -0.017345     -0.023598     -0.003947
Au      6.31218     14.94848      9.07970         0.011537      0.061515      0.016319
Au      6.84844     12.05433      9.19058        -0.025507     -0.024074      0.022236
Au      8.50337     14.42560      7.47289         0.022806      0.002620      0.014480
Au     10.53480     10.94387      4.80010         0.009902      0.025811      0.021591
Au     13.50231     13.95679      9.90960         0.032827     -0.026363      0.020559
Au     10.74770     13.39738      6.13093         0.040365     -0.020404     -0.079436
Au     13.31070     14.01920      7.11933         0.015970     -0.028933      0.052679
Au     11.05953     14.91998      8.56296         0.011364      0.028383      0.032209
Au      9.14794     11.26788      7.55727         0.032364      0.055736      0.035154
Au     11.73545     12.07870      8.49764         0.046459      0.073823     -0.056729
Au     14.73374     11.82646      8.23373         0.014789     -0.011607      0.005619
Au     13.04059     11.47943      5.94414        -0.010598     -0.050934     -0.040133
Au      6.55806      8.67365     12.99892        -0.019582     -0.013673     -0.005455
Au      8.56621      5.27035     10.33787        -0.014098     -0.007936     -0.036838
Au      5.11141      9.78326     10.82006         0.028474     -0.029586     -0.000463
Au      7.47414      6.01820     12.81549        -0.002398      0.068952     -0.064921
Au      9.05763      7.83567     14.25516         0.033900     -0.006181      0.014506
Au      6.17535      7.14986     10.57566         0.030236     -0.097260     -0.001661
Au      8.86539      8.00167     11.29364         0.015854      0.039995      0.097789
Au     10.34428     10.05652      9.92449        -0.050571     -0.036402      0.022519
Au     14.68953      7.47893     13.69982         0.107279      0.012538     -0.065062
Au     15.34299      7.21321     11.02319         0.108956     -0.075804      0.029836
Au     13.15059      5.65940     12.24920         0.012849      0.025770     -0.039753
Au     13.37716      9.66743     12.45429        -0.064191      0.028668      0.017402
Au     16.20107      9.56252     12.25382         0.000874     -0.121612      0.021180
Au     10.28534      5.72317     12.60539         0.037813     -0.029242     -0.068646
Au     13.48982      9.47453     15.26013         0.058263      0.044530      0.025853
Au     11.76884      7.78530     11.06671        -0.057848      0.044875     -0.028324
Au     11.36513      4.82480     10.14857        -0.027071      0.106035     -0.012306
Au     10.55204      9.91707     12.76968        -0.014940     -0.049804     -0.020836
Au     11.87818      7.47724     14.12018        -0.029585      0.059241     -0.021857
Au     10.68722      9.75657     15.54446         0.011665      0.035877     -0.060004
Au      7.37302     13.33007     14.42200        -0.059866      0.072300      0.003419
Au      8.98408     15.39177     12.94043        -0.032148     -0.011218      0.004508
Au      4.90444     13.96671     13.28093         0.096263     -0.043067     -0.058856
Au      8.80366     15.61111     10.11990        -0.023123     -0.029396     -0.024704
Au      5.74700     11.33702     13.11434        -0.008863     -0.059695     -0.023982
Au      8.10890     10.51750     14.50061        -0.020340     -0.033452     -0.013875
Au      4.47657     12.53932     10.90110        -0.015150     -0.010531      0.047398
Au      7.99012     10.77746     11.45536        -0.009147     -0.024601     -0.010106
Au      7.09039     13.75708     11.55708        -0.007985      0.016453      0.011350
Au     11.34643     14.50959     14.17653        -0.030736      0.017681      0.017322
Au      9.64229     12.63214     12.84050        -0.010611      0.010272     -0.032401
Au     12.32717     11.93374     14.60145         0.012218      0.009534      0.037292
Au     15.05254     11.85727     11.04322        -0.058607     -0.006507      0.009943
Au     15.00080     11.57526     13.84802        -0.006517     -0.031428      0.031016
Au     11.32398     14.97834     11.40173        -0.019454     -0.053042     -0.027484
Au      9.76164     12.48542     15.60814         0.049215      0.048953      0.046240
Au      9.42983     12.85159     10.03913         0.044797     -0.014925     -0.015444
Au     11.96945     11.93914     11.38426         0.012531     -0.020218     -0.062159
Au     13.62911     13.76363     12.71858        -0.031697     -0.032437     -0.004069
