75
# total energy = -211.12103492 eVAu      8.74912      8.95010      5.96260        -0.087060      0.007646     -0.083444
Au      6.44339      8.25009      9.60125        -0.001839     -0.072300      0.040030
Au      9.41236      8.25674      8.82679         0.018144      0.059950      0.031007
Au      7.54674      6.72415      7.42507         0.035100      0.052725      0.042022
Au      6.06288      9.06492      6.89482         0.039143     -0.012137      0.084773
Au      9.49400      6.25329      5.48376         0.015968     -0.012626      0.068741
Au     16.76117      7.42188      8.38004        -0.059405      0.048092      0.038072
Au     10.93887      8.67678      4.15859         0.054915      0.042952      0.039897
Au     10.01563      5.35075      8.14481        -0.033966     -0.068540      0.069581
Au     16.30846     10.17556      8.92348         0.140783      0.068258     -0.090475
Au     11.46290      7.84295      6.86892         0.021515      0.011610      0.058731
Au     12.09687      5.09861      6.25623        -0.040818     -0.023204      0.046896
Au     15.39958      5.11819      9.63135        -0.048322      0.066581      0.030245
Au     11.60775      6.02623      3.69924         0.026441      0.014976      0.040289
Au     14.14176      6.63318      7.56324         0.054715     -0.061708     -0.050505
Au     12.01251      7.13487      9.60237        -0.006016      0.003614     -0.022983
Au     13.55954      7.56261      4.93257         0.008212      0.062651      0.004157
Au     12.69717      4.50403      8.90548         0.012423      0.028423      0.008504
Au     15.37101      9.01580      6.46758         0.000777     -0.002974      0.030829
Au     13.34333      9.40999      8.37813        -0.049434     -0.007009      0.013829
Au      4.05040     13.17022      8.59972         0.066299     -0.013847      0.040023
Au      6.68301     13.37162      7.64499         0.033983      0.124331     -0.100576
Au      7.49260     11.46989      5.58412         0.069946      0.025840      0.065881
Au      4.87900     11.53200      6.49581         0.034891      0.037485      0.085403
Au      7.94034     10.71483      8.30848         0.008643      0.007873      0.041194
Au      5.03125     10.60509      9.14297        -0.123455     -0.126109      0.040152
Au      8.53851     14.76715      9.24110         0.012445      0.025522     -0.021763
Au      9.36703     13.17142      6.92886         0.069140      0.043378     -0.030956
Au     10.24343     11.25711      4.96860        -0.000550     -0.010453      0.072224
Au     12.16072     12.83829      6.41833        -0.035877     -0.050546      0.050669
Au     14.72320     11.74067      7.15890        -0.005277     -0.071587      0.032832
Au     11.27410     14.54902      8.56962        -0.031186     -0.074065      0.042717
Au     10.75955     10.52222      7.60768        -0.017518     -0.009353      0.114457
Au     12.69614     12.17522      9.08738        -0.085268     -0.079689      0.030933
Au      9.86705     12.27567      9.79251         0.061029     -0.072055     -0.036475
Au     12.91816     10.26280      5.47395         0.045394      0.084650     -0.027455
Au      7.61905      9.99387     13.96202        -0.049795     -0.039717      0.020400
Au      8.03420      5.92473     10.10577         0.039964      0.061729     -0.011062
Au      8.65952      5.36846     12.81113         0.031085      0.051186     -0.001761
Au      8.47685      9.96780     11.05234         0.027025     -0.051077     -0.032556
Au      9.21548      7.62776     14.42883         0.032636      0.027022     -0.044005
Au      7.12761      7.67318     12.32761         0.058542      0.056012     -0.025328
Au     11.29414      9.83279     10.34768        -0.043013      0.060765     -0.058557
Au     17.35410      8.43059     10.96793        -0.045302      0.008260     -0.016951
Au     14.69399      7.78446     10.27613         0.006806     -0.032572     -0.050324
Au     14.01468      6.60757     14.11094        -0.024672     -0.020558     -0.023731
Au     13.37525      5.22762     11.61891        -0.011009     -0.148582      0.030528
Au     16.01354      6.16914     12.19412        -0.027819      0.022522     -0.029804
Au     10.66913      4.78964     10.88931         0.043532      0.046295     -0.002105
Au     15.41179      8.86963     13.06332         0.001468     -0.001844      0.001025
Au     11.97092      8.27217     15.10865        -0.024515      0.001824     -0.093798
Au     12.69555      8.20292     12.26137        -0.014064      0.006709      0.009769
Au     10.57399      9.92859     13.13006         0.010727      0.008286     -0.024252
Au     11.35828      5.85728     13.53718         0.009973      0.010463     -0.053457
Au      9.96293      7.55070     11.59488         0.011927      0.094424     -0.055343
Au      9.84903     10.00311     15.81020        -0.011061     -0.012326     -0.035889
Au      6.30818     12.45682     13.36112        -0.009485     -0.072824     -0.000054
Au      9.10357     12.34155     12.56466        -0.046999      0.031015      0.004082
Au      5.82632     14.80258     10.02518         0.035620     -0.000178     -0.005989
Au      4.44996     12.48114     11.28869         0.018140     -0.028105      0.005217
Au      5.72447     10.03293     11.80667        -0.012811     -0.026881     -0.003021
Au      8.38244     12.38149     15.29570        -0.017013     -0.003337     -0.045241
Au      7.13085     12.37698     10.47947        -0.037701      0.018490      0.002718
Au      7.73167     14.84487     12.05814         0.065989      0.026921     -0.059083
Au     12.47590     14.41966     13.41131        -0.020616     -0.009068     -0.025513
Au     13.25685     14.43380     10.65881        -0.031584     -0.061660      0.030784
Au     14.66452     12.81633     12.64373        -0.051875     -0.042662     -0.082396
Au     14.01093     10.43799     11.03943        -0.056418      0.017355     -0.004695
Au     13.37603     10.57954     14.00375        -0.000543      0.012407      0.020478
Au      9.71625     14.63499     14.08132        -0.015438     -0.021167     -0.033623
Au     10.49036     14.84657     11.33458         0.010664      0.080076     -0.025078
Au     11.23196     12.26112     14.76900        -0.039845      0.014561     -0.005779
Au     15.37116     12.72872      9.77653        -0.012490     -0.058847      0.008368
Au     11.89796     12.15616     11.91098        -0.009427     -0.071572     -0.031203
Au     16.63529     11.04341     11.70119         0.005483     -0.001702     -0.052225
