75
# total energy = -211.08938553 eVAu     14.98872     16.97412      9.18996        -0.038322      0.012640      0.002457
Au     16.04704     15.05380     14.39187         0.059840      0.041368     -0.061397
Au     11.55562     18.96571     12.06873         0.040714      0.046916     -0.006820
Au     21.11675     12.39969     11.73911         0.030334     -0.006920     -0.023362
Au     17.43440     15.66564      9.57531        -0.015957     -0.061788      0.008085
Au     17.01437     18.29862     10.62634        -0.039020      0.033099      0.020919
Au     22.03359     13.04566     14.33004         0.072063     -0.006074      0.011296
Au     13.47178     14.73026     10.08913         0.047878     -0.015241      0.010655
Au     15.08497     10.04853     14.30869         0.028043     -0.000983      0.013537
Au     19.28453     12.74709     13.87446        -0.069025      0.035410     -0.031170
Au     12.29855     17.31695      9.94790        -0.004801      0.039821     -0.007349
Au     18.98298     19.45191     12.26668         0.047522      0.035436      0.002258
Au     15.91245     13.33185     10.44297        -0.006842      0.004375      0.013947
Au     16.91607      9.90904     12.19389         0.022023     -0.006302     -0.016143
Au     11.04462     13.95862     13.64894         0.035402     -0.012498     -0.035568
Au     18.36909     12.02245     10.98840        -0.077339      0.022304     -0.034268
Au      9.96749     16.61020     13.41541        -0.014553     -0.007343      0.052114
Au      9.96215     19.64651     14.12772         0.012478      0.029605      0.027790
Au     14.02212     13.82370     12.78669        -0.059205      0.066459      0.013993
Au     12.56700     11.46144     13.79321        -0.029527      0.040632      0.044851
Au     19.64062     10.17075     12.77489         0.008070     -0.041579     -0.014619
Au     12.72147     16.41422     12.62730         0.079277     -0.007911      0.048859
Au     16.52610     12.43707     13.25916         0.014937     -0.020930     -0.000490
Au     16.31574     19.90818     13.00754        -0.026132      0.014380     -0.019887
Au     19.81590     14.32624     10.19411         0.035812     -0.013892     -0.014507
Au     13.61034     20.19365     13.74772         0.014085      0.011330     -0.099447
Au     12.05673     12.59410     11.26562        -0.027459      0.023131      0.030182
Au     15.46311     16.03642     11.75525        -0.046176      0.036388      0.059079
Au     10.76252     15.14108     11.10078        -0.030779     -0.010606      0.021478
Au     17.51963     17.30254     13.32339        -0.017584     -0.106771      0.007484
Au     21.10735     15.12027     12.66845         0.056214     -0.001370     -0.022247
Au     14.44579     11.13545     11.66060         0.034557      0.050627     -0.027619
Au     14.77126     17.64493     14.17292         0.008185      0.001990     -0.041642
Au     20.46547     17.60491     13.83351        -0.004192     -0.014230      0.036736
Au     17.96767     14.65381     12.23998        -0.008800      0.017909      0.045573
Au     19.54184     16.94242     11.16106         0.028218     -0.026792      0.010289
Au     14.26859     18.84833     11.30376         0.019054     -0.003123      0.000280
Au     12.35735     19.59133     18.98675         0.019534     -0.019100     -0.050661
Au     12.52864     14.90024     18.15399        -0.009911      0.002878      0.024155
Au     17.76644     19.19973     17.79084         0.014112     -0.003684     -0.028600
Au     14.06335     17.49906     16.92569         0.014259     -0.012662     -0.011203
Au      9.18159     17.63724     15.90007         0.047319     -0.104238      0.007911
Au     18.48587     19.44033     15.02842        -0.011971     -0.020820      0.030097
Au     19.08960     17.26031     19.37558        -0.031498     -0.000153     -0.033987
Au     19.47904     13.22451     19.29618         0.014751     -0.026498     -0.002594
Au     21.61908     15.60016     15.48054         0.052926      0.002966      0.008129
Au     20.54174     10.74043     15.37534         0.038652     -0.045709      0.031994
Au     18.73609     11.13833     17.53052         0.039110     -0.026471      0.025999
Au     18.89118     15.31803     14.93339        -0.043955      0.058575     -0.013745
Au     18.23025     15.17094     17.67838        -0.068448      0.008433     -0.045123
Au     20.46960     13.25098     16.66385         0.123885     -0.054252      0.054721
Au     15.99687     10.66683     17.01712         0.001327      0.030878      0.007468
Au     20.97793     15.53844     18.23835         0.029106     -0.001810     -0.016965
Au     10.51035     15.26907     16.07948        -0.126990      0.144492      0.043776
Au     17.61049     14.95813     20.43241        -0.038528      0.007447     -0.044944
Au     15.09183     19.60943     18.53028        -0.038171      0.017867     -0.031407
Au     10.54070     19.86305     16.88602         0.051935     -0.001406     -0.064976
Au     11.13325     17.29142     17.94619        -0.071053     -0.034290      0.012554
Au     17.43079     13.06405     15.97383        -0.045828     -0.001726      0.028524
Au     17.83324     10.06395     14.97715         0.021449     -0.047765     -0.006707
Au     15.84684     20.00877     15.79004         0.005873     -0.002750     -0.031987
Au     15.42459     14.90601     17.16021        -0.009333      0.049815      0.060495
Au     16.25082     17.11278     19.14769        -0.007184      0.007617      0.043161
Au     13.45692     17.12845     19.65238        -0.022859     -0.016965     -0.008664
Au     12.04024     18.02879     14.99953        -0.062860      0.036308     -0.015891
Au     13.25337     10.48939     16.37510         0.013587      0.032450      0.011864
Au     13.24323     15.37565     15.23470        -0.042241      0.009354     -0.025077
Au     14.00571     12.49267     18.22424         0.020891     -0.007954     -0.027818
Au     16.71958     12.67857     18.94587         0.008944      0.000675     -0.035996
Au     11.87561     12.91725     16.21864         0.041832     -0.143513      0.001172
Au     14.61755     12.78121     15.39471        -0.003496     -0.047781     -0.001859
Au     14.84166     14.67907     19.86534        -0.000602     -0.013200     -0.005402
Au     16.88398     17.15311     16.13469        -0.011887      0.019497      0.047911
Au     19.92713     17.64426     16.66164        -0.009902     -0.023401     -0.021379
Au     13.21809     20.38910     16.44039        -0.081769      0.027429      0.059727
