75
# total energy = -211.23567527 eVAu      8.27012      8.96565      4.73599         0.074026     -0.052042      0.033176
Au      5.61205      8.22343      8.85907        -0.037774      0.015619     -0.069043
Au      8.62872      7.61844      9.82051         0.005397      0.077097      0.070686
Au      6.73041      5.66023      9.36241         0.087252      0.102217      0.019413
Au      7.37143      7.19985      6.93262         0.043903      0.001893      0.050381
Au      6.58768      9.91508      6.68695        -0.020523      0.059937      0.111741
Au     14.92243      8.66971      7.72991        -0.023737     -0.056549      0.013834
Au     11.05597      9.77303      5.15104        -0.008522     -0.032341      0.026505
Au     15.83322      6.81149      9.61235         0.030775     -0.005052     -0.007486
Au     13.22203      8.10619     10.01681         0.145881      0.047599     -0.057952
Au      9.99584      7.06224      5.65873        -0.054278      0.093220      0.000958
Au     11.55960      4.39297      9.06178         0.029212     -0.032966     -0.023570
Au     11.71626      5.12271      6.41237         0.053213     -0.027351      0.026956
Au     13.81247      5.95794      7.96953         0.020916     -0.031192     -0.032213
Au     11.14081      7.25187      8.35604        -0.052103      0.056374     -0.060350
Au     12.81751      7.79860      6.01014         0.011820     -0.031117      0.034201
Au      9.34387      9.27362      7.47875         0.016988      0.005648      0.126273
Au      9.12713      5.23247      7.79644         0.025658      0.042760      0.029207
Au      5.15082     13.79544      9.24025         0.031712      0.054333     -0.025815
Au      6.89680     12.64099      7.33713        -0.093026      0.020761     -0.097537
Au      4.86112     10.97847      8.52491         0.075239     -0.019941     -0.081743
Au      7.60930     10.41175      9.44998         0.049022     -0.100615     -0.044096
Au      7.38702     15.24980      8.23590        -0.063911      0.008440      0.030566
Au      7.86957     13.21308     10.17185         0.010946      0.022931     -0.008497
Au      8.84366     11.51017      5.61834        -0.002856      0.037974      0.028534
Au     11.56093     12.38492      6.21790        -0.069910     -0.039730      0.060148
Au     12.45201     13.10152      8.87005        -0.078255     -0.006723      0.022702
Au     10.15066     14.80509      9.07156        -0.001042     -0.040871      0.012044
Au      9.79074     11.93283      8.42795         0.039640      0.049311      0.045421
Au     14.61484     11.32785      8.72740        -0.121333     -0.098059      0.061779
Au     12.05545     10.06242      8.20385        -0.002558      0.031579     -0.006797
Au     13.67716     10.56778      6.06925        -0.058009     -0.057532      0.074297
Au      9.30153     14.06206      6.55018        -0.022123     -0.048275     -0.018865
Au      7.28605      9.80262     14.61534        -0.002543      0.051720      0.061961
Au      3.89201      9.41566     10.78624         0.005273     -0.007830     -0.028790
Au      4.87910      6.83179     11.22087         0.072292      0.041644     -0.024216
Au      6.70428      8.92531     11.68708         0.103418     -0.030400     -0.023938
Au      8.34137      7.18024     14.90243         0.051023      0.066878     -0.105330
Au      5.66676      7.57521     13.93026         0.067782      0.038304     -0.038431
Au      7.43742      6.09169     12.25111        -0.032229     -0.007590      0.010438
Au     10.40806      9.68523     10.40133        -0.106522      0.019572      0.026432
Au      9.04234      4.54047     10.53280         0.059515      0.055444      0.002048
Au     14.15367      7.42210     14.79346         0.037595     -0.042409     -0.033159
Au     15.74370      9.44474     10.55350        -0.019002     -0.053530      0.027851
Au     13.75406      5.14812     10.67321         0.091521     -0.103662      0.001989
Au     12.79212      5.55528     13.29857         0.040098     -0.022846      0.017388
Au     12.39433      8.43486     12.66693        -0.021657      0.084805      0.042736
Au     15.04860      7.12410     12.21912         0.038272     -0.012903      0.029684
Au      9.88337      5.33428     13.42499         0.041621      0.038968     -0.057003
Au     14.92784      9.78969     13.26656        -0.003191     -0.044714     -0.014102
Au     12.79483      9.70300     15.28450        -0.059056      0.085792     -0.016731
Au     11.05009      6.55607     11.07336        -0.056564     -0.113169      0.047324
Au     11.47021      3.74351     11.72297         0.004478     -0.026818      0.006388
Au      9.46383      8.40635     12.69237        -0.039967      0.034284     -0.091257
Au     11.23289      7.21917     15.03723         0.001950      0.021049     -0.054243
Au      9.89555      9.58124     15.61290         0.012189     -0.027839     -0.058964
Au      6.43279     12.46157     13.93029         0.110419      0.012183      0.031478
Au      8.39444     11.15261     12.15023         0.079719     -0.072948      0.056026
Au      3.14563     12.12333     10.33454        -0.101445      0.044654     -0.012228
Au      5.93418     14.53465     11.93435         0.031772      0.056025     -0.022836
Au      8.53877     14.19007     12.98342        -0.033569      0.076120      0.107097
Au      3.90294     12.83760     12.93834        -0.087273      0.059627      0.037330
Au      4.68578     10.16500     13.51805         0.021152      0.005903      0.021849
Au      5.74793     11.63541     11.22149         0.003762     -0.019989      0.003675
Au      8.14785     15.96764     10.85244        -0.069935      0.002371      0.003920
Au     11.21938     13.75112     13.78752        -0.022145      0.020539     -0.036443
Au     13.11923     13.85514     11.57644        -0.085475     -0.053506      0.011550
Au     11.52148     12.03322     15.91836         0.052932     -0.071075     -0.037279
Au     12.86566     10.82653     10.98883        -0.003173      0.031230     -0.009481
Au     10.79177     15.46786     11.67568        -0.003904     -0.030074      0.047546
Au     11.02144     10.85612     13.24697        -0.051674     -0.055567     -0.103331
Au     15.25182     12.05335     11.48267        -0.078400     -0.075751      0.002929
Au      8.97539     12.16790     14.89908        -0.080722      0.002277     -0.098478
Au     10.56123     12.65961     11.07718         0.005074      0.015749     -0.077047
Au     13.58180     12.15618     13.83807        -0.015047     -0.039854      0.000793
