75
# total energy = -211.27674060 eVAu      7.94799     10.12858      4.28755         0.009557      0.027035      0.023974
Au      5.14895      8.26683      8.31242        -0.013723     -0.013932      0.015070
Au      7.60691      9.30009      8.97958         0.019906     -0.019310      0.001137
Au      7.27788      6.42030      8.08367        -0.017106     -0.006514      0.025713
Au      8.53483      8.39449      6.41173        -0.003039     -0.029788     -0.025183
Au      6.46905     10.50914      6.65996        -0.024828      0.005426      0.005035
Au     13.96640      6.64000      6.02384         0.001837      0.009668     -0.013647
Au     12.66254      8.88061      4.93108        -0.002708      0.004129     -0.016129
Au     15.68980      6.99349      8.27845        -0.009613      0.018229      0.022873
Au     12.81121      7.33434      8.48805        -0.014898      0.075598      0.054939
Au     10.06584      8.38056      4.04068        -0.003603      0.032805      0.020081
Au     12.44271      4.71148      7.49710        -0.023735     -0.012080     -0.003885
Au     13.06857      9.86713      9.62636         0.011478     -0.051505      0.000381
Au     11.02755      6.77173      6.10764        -0.029443      0.035822     -0.010962
Au     14.19524      5.10475      9.68642        -0.008366      0.000861      0.021887
Au      9.94235      7.45576      8.73487        -0.010412      0.029937      0.007847
Au     14.55051      9.27795      7.02160         0.013609      0.004497     -0.021569
Au     15.87633      9.47131      9.55993        -0.005407      0.003787     -0.011523
Au      9.63936      4.87078      7.78740        -0.008606     -0.006156      0.014952
Au     11.24874      9.51447      7.27794         0.011259     -0.043100     -0.010694
Au      4.10106     13.63021      8.55603         0.057869     -0.005529     -0.036251
Au      6.11211     13.38441      6.67072         0.027865     -0.001199     -0.003394
Au      8.30222     12.71373      5.19144         0.031088      0.003763     -0.003853
Au      4.25103     10.86070      8.51065        -0.002411     -0.028323      0.024161
Au      6.43275     15.04906      8.95061        -0.012188      0.000368     -0.009840
Au      6.71869     12.10579      9.16371        -0.023382     -0.008597     -0.028757
Au      8.64405     14.54226      7.37502         0.042428      0.026852     -0.025735
Au     10.58295     11.02202      4.71706         0.031262      0.040519      0.001046
Au     13.52629     13.87670      9.95832        -0.001469      0.006880      0.022692
Au     10.88253     13.48843      6.01129        -0.003470      0.022078      0.015008
Au     13.41448     13.99442      7.16025        -0.028864     -0.015926     -0.008480
Au     11.16393     14.97084      8.54188        -0.018502     -0.009697     -0.017994
Au      9.05022     11.36461      7.52884        -0.045163     -0.023831     -0.063796
Au     11.65797     12.13283      8.41363         0.014735      0.036478     -0.039609
Au     14.72146     11.77463      8.29395         0.019327      0.021337     -0.018873
Au     13.06523     11.48297      5.93398         0.014284     -0.001125     -0.007801
Au      6.55500      8.61137     13.07152        -0.021160      0.028665      0.007951
Au      8.57736      5.26870     10.35763         0.011187     -0.017090     -0.002220
Au      5.08806      9.62722     10.88462        -0.037032      0.004918      0.031602
Au      7.54325      6.00572     12.85357        -0.003354     -0.007945     -0.018364
Au      9.13015      7.87525     14.24985         0.018463      0.022377      0.018598
Au      6.15605      7.00909     10.61092         0.009595     -0.034804      0.014035
Au      8.77346      8.03708     11.29980         0.020278      0.011899     -0.036466
Au     10.19548     10.10885      9.85991        -0.006067     -0.074492      0.033308
Au     14.76926      7.50365     13.68040        -0.010091      0.008371      0.017642
Au     15.62867      7.04192     11.07897        -0.001836     -0.017290     -0.007538
Au     13.22438      5.76227     12.19250        -0.009461     -0.003660      0.003813
Au     13.33578      9.69438     12.43595        -0.003745      0.004960      0.022338
Au     16.21916      9.48418     12.31464        -0.010639      0.007417     -0.013762
Au     10.35443      5.78208     12.58482        -0.010992     -0.031614     -0.025703
Au     13.59485      9.51866     15.26937        -0.029046     -0.010517      0.012287
Au     11.69433      7.84308     11.03438         0.012399      0.002687     -0.053145
Au     11.41841      5.00333     10.09647        -0.030286     -0.054827      0.040313
Au     10.47766      9.92847     12.69251         0.014311      0.008743      0.009339
Au     11.95265      7.58819     14.04665         0.001479      0.012768      0.025630
Au     10.81131      9.86751     15.45151        -0.007405      0.006814     -0.008908
Au      7.35646     13.30672     14.37252         0.000706      0.019318     -0.004523
Au      8.94889     15.35216     12.88098         0.002340      0.006889      0.021564
Au      4.91390     13.90964     13.21114         0.006479     -0.044703      0.014476
Au      8.87830     15.64984     10.06280         0.017429     -0.013553      0.010755
Au      5.67119     11.23449     13.19472         0.028105     -0.038394     -0.017216
Au      8.12535     10.52597     14.49226         0.022369     -0.027414     -0.025205
Au      4.37754     12.35024     10.97214         0.000651     -0.008060      0.021399
Au      7.87236     10.80007     11.42739        -0.010866      0.003747      0.013190
Au      7.04306     13.78266     11.45834        -0.013866      0.025524      0.008584
Au     11.30150     14.45038     14.18757         0.023330      0.028669     -0.030070
Au      9.59353     12.61872     12.78323         0.011462     -0.016044     -0.040944
Au     12.55329     12.11924     15.08119         0.010012     -0.021183      0.008225
Au     14.99578     11.74608     11.10961        -0.000479      0.026191      0.006291
Au     15.03060     11.51471     13.92101        -0.004189      0.012150     -0.025470
Au     11.31026     14.86915     11.39615         0.013989     -0.002711      0.010590
Au      9.80485     12.50629     15.56474        -0.021489     -0.019216      0.017305
Au      9.35361     12.87679      9.97364         0.001503      0.025788      0.008628
Au     11.89002     11.91372     11.29100         0.028237      0.042124      0.052048
Au     13.56066     13.61218     12.78821        -0.017891      0.004041     -0.019194
