75
# total energy = -211.16263300 eVAu     14.97765     16.98142      9.19689         0.017173     -0.005208     -0.004623
Au     16.05238     15.05670     14.39311        -0.009048      0.005017      0.028844
Au     11.57712     19.01443     12.06369         0.005917      0.019680      0.005519
Au     21.11311     12.39243     11.74106         0.003068     -0.019136      0.018435
Au     17.41919     15.63898      9.60651        -0.001513      0.023597      0.003720
Au     17.00450     18.29857     10.64568         0.037502     -0.008840     -0.034468
Au     22.04571     13.04320     14.32477         0.015435     -0.041688     -0.015077
Au     13.47810     14.73470     10.09650        -0.023098      0.010284      0.021193
Au     15.11515     10.04992     14.31475         0.006254      0.003739     -0.009556
Au     19.27800     12.75844     13.88246         0.022241     -0.001722      0.031678
Au     12.29339     17.33421      9.96003        -0.029538      0.002879      0.000307
Au     18.99572     19.43936     12.27930         0.021863     -0.011500     -0.004215
Au     15.90160     13.33358     10.43756        -0.008976      0.015646      0.002220
Au     16.93137      9.90453     12.18864        -0.019566      0.006170     -0.000248
Au     11.03472     13.95427     13.66829         0.001852      0.003449      0.020879
Au     18.34938     12.02937     10.96744         0.019227     -0.010228      0.014070
Au      9.95843     16.58438     13.44397        -0.010848      0.009714      0.006269
Au      9.96433     19.66973     14.12657        -0.043150     -0.002925     -0.045048
Au     13.99437     13.85716     12.80520         0.016013      0.010183      0.009880
Au     12.56773     11.48189     13.80886         0.010005     -0.040606     -0.013352
Au     19.63990     10.17520     12.77168         0.018070      0.015757     -0.000218
Au     12.71374     16.44185     12.63715         0.003432      0.028667      0.020537
Au     16.53203     12.43005     13.25863         0.008831      0.029123      0.016280
Au     16.32141     19.90654     12.99101        -0.002772      0.025387     -0.005168
Au     19.83895     14.31701     10.20415        -0.016827      0.021023      0.001110
Au     13.61633     20.21538     13.72150         0.026197      0.019997     -0.032315
Au     12.03962     12.61430     11.28583         0.003642     -0.005721      0.008032
Au     15.44005     16.05979     11.77067         0.007699     -0.010935      0.018496
Au     10.75588     15.15286     11.12708        -0.017822      0.015682     -0.020869
Au     17.52044     17.27752     13.31912        -0.001735      0.022210      0.022204
Au     21.19259     15.12653     12.64443        -0.038936     -0.005403      0.013028
Au     14.46300     11.17957     11.66733        -0.021007      0.006840      0.017986
Au     14.76792     17.65371     14.16968         0.017390     -0.010809     -0.024676
Au     20.46805     17.58077     13.84770         0.021877     -0.016935     -0.017980
Au     17.97173     14.64904     12.24447        -0.006715     -0.007785      0.028337
Au     19.55789     16.92255     11.17753        -0.003125     -0.006062      0.000270
Au     14.27496     18.88029     11.27334        -0.002544      0.018635      0.015822
Au     12.35072     19.56483     18.94761         0.017790     -0.008920     -0.031574
Au     12.49118     14.87868     18.16492        -0.003937     -0.007769     -0.000794
Au     17.75624     19.20080     17.77927         0.002053      0.009617     -0.005605
Au     14.04077     17.50473     16.90288        -0.028034      0.031213      0.062248
Au      9.19628     17.62592     15.89827        -0.036195     -0.022069     -0.001402
Au     18.47166     19.41404     15.02849        -0.004592      0.007601      0.021521
Au     19.07222     17.25080     19.33531        -0.025545     -0.003501      0.000303
Au     19.48181     13.22142     19.28156         0.039232      0.008028     -0.014130
Au     21.63807     15.57554     15.47605         0.003873     -0.025711     -0.004120
Au     20.54399     10.73106     15.37317         0.030744     -0.011428     -0.032453
Au     18.76753     11.13242     17.52336         0.027104      0.007989     -0.015727
Au     18.89090     15.32448     14.94294         0.005626     -0.027718     -0.013412
Au     18.22039     15.16009     17.65642        -0.024121      0.007730     -0.013596
Au     20.61466     13.18727     16.72174         0.084958     -0.033857      0.045076
Au     16.02471     10.67716     17.01075         0.015187     -0.022937     -0.019464
Au     20.97699     15.53458     18.21645         0.004006     -0.039593      0.002372
Au     10.46675     15.24812     16.12266        -0.023518      0.002172      0.006450
Au     17.58994     14.95114     20.38942        -0.008468      0.016754      0.001301
Au     15.07801     19.61664     18.48362        -0.011696      0.012557     -0.007081
Au     10.55251     19.84808     16.85783        -0.013940      0.018505      0.016694
Au     11.06325     17.26733     17.99932        -0.017944     -0.034968     -0.015182
Au     17.42852     13.06331     15.98452         0.009339     -0.008955     -0.031950
Au     17.85942      9.98772     14.98660        -0.002187      0.046827     -0.018775
Au     15.83312     20.03141     15.76238         0.028420     -0.009050     -0.030007
Au     15.40239     14.93529     17.16185        -0.010233     -0.018493      0.009004
Au     16.22875     17.15505     19.22129        -0.005173      0.006803      0.007103
Au     13.42687     17.10579     19.62762        -0.002160     -0.018587      0.006636
Au     12.03321     18.06104     14.98397        -0.005911     -0.002913     -0.032229
Au     13.28040     10.48964     16.37568         0.006708      0.003826     -0.000654
Au     13.19937     15.38752     15.24256         0.008903     -0.007516     -0.008588
Au     14.02291     12.49947     18.20532        -0.003555      0.009170      0.015352
Au     16.73084     12.65947     18.93917        -0.009800      0.032945     -0.036490
Au     11.87364     12.89428     16.22092         0.002669     -0.025112      0.035564
Au     14.62667     12.78556     15.38080        -0.028129      0.008177      0.031479
Au     14.83297     14.67552     19.85780        -0.009068     -0.012718     -0.007851
Au     16.86162     17.16000     16.14803         0.015907      0.001602     -0.004349
Au     19.94452     17.63930     16.65244        -0.048663     -0.006927     -0.013384
Au     13.20476     20.43148     16.42145        -0.006116      0.009052      0.000411
