75
# total energy = -209.41695385 eVAu      8.82298      8.97267      6.07690        -0.343320     -0.017640     -0.334537
Au      6.58344      8.34429      9.59826        -0.333715     -0.524064     -0.013293
Au      9.45039      8.30703      8.86152        -0.538813     -0.443580     -0.098141
Au      7.57891      6.75997      7.42187        -0.149386     -0.082994      0.164642
Au      6.14282      9.08596      6.90814        -0.242335      0.010989     -0.099964
Au      9.50435      6.32021      5.53391         0.189079     -0.253020     -0.347832
Au     16.67948      7.42181      8.40039         0.211352     -0.019237      0.021410
Au     10.91151      8.69012      4.24290         0.160187     -0.344023     -0.353054
Au     10.06848      5.50547      8.16853        -0.204732     -0.516044     -0.071475
Au     16.11812     10.11171      9.00166         0.631997      0.171380     -0.243246
Au     11.44921      7.91334      6.98622         0.045847     -0.547398     -0.919272
Au     12.13588      5.17835      6.31105        -0.220855     -0.168561     -0.476721
Au     15.35965      5.18751      9.61403         0.126723     -0.120692      0.083669
Au     11.59794      6.03624      3.70571         0.028216      0.107435      0.222810
Au     14.07319      6.70142      7.61448         0.360165     -0.279544     -0.073109
Au     11.98255      7.20853      9.60717        -0.065474     -0.766212     -0.004993
Au     13.54544      7.55618      5.02262        -0.197730     -0.158333     -0.491122
Au     12.69532      4.55930      8.90949         0.020555     -0.182245      0.105476
Au     15.33567      8.99447      6.49286         0.174838      0.183155      0.013643
Au     13.27220      9.40612      8.42346         0.513492      0.373228     -0.538138
Au      4.04133     13.16714      8.57797         0.147188     -0.047762      0.083632
Au      6.75034     13.25394      7.74531        -0.629424      0.307791     -0.326320
Au      7.53083     11.42515      5.63670        -0.228518      0.072565     -0.164360
Au      4.89814     11.52600      6.49835         0.005760      0.020110      0.061620
Au      8.03583     10.69226      8.37551        -0.517667     -0.091907     -0.706344
Au      5.20445     10.64862      9.16025        -0.713457      0.142788     -0.246478
Au      8.52424     14.68470      9.29213         0.146714      0.375129     -0.131129
Au      9.36360     13.04667      7.03936         0.303997      0.368025     -0.444428
Au     10.22388     11.22458      4.98957         0.102513      0.255790      0.051762
Au     12.12575     12.78176      6.46050         0.017412      0.138381     -0.112567
Au     14.66178     11.69182      7.20497         0.171575      0.153669     -0.155738
Au     11.25736     14.47733      8.60380         0.045944      0.170100     -0.143717
Au     10.75154     10.49676      7.67960         0.068636      0.524066     -0.542875
Au     12.66454     12.11987      9.11584         0.070560      0.298790     -0.189166
Au      9.88514     12.19742      9.80273         0.379266      0.568295     -0.386783
Au     12.84768     10.19526      5.60442         0.239825      0.314038     -0.394491
Au      7.71978     10.01212     13.84234        -0.300619      0.000331      0.501475
Au      8.08503      5.99835     10.09885        -0.155127     -0.161874      0.073012
Au      8.68782      5.38347     12.79720        -0.037132      0.113754     -0.058155
Au      8.54734      9.97094     11.01860        -0.380240     -0.529075      0.225184
Au      9.23029      7.66837     14.36268        -0.026675     -0.173949      0.181214
Au      7.18895      7.71738     12.29103        -0.096698     -0.270868      0.076561
Au     11.28472      9.83073     10.32611        -0.040757      0.174965     -0.047193
Au     17.30756      8.42119     10.95820         0.055208     -0.032818      0.009075
Au     14.56528      7.85433     10.27438         1.236420     -0.726669      0.022562
Au     14.00305      6.62969     14.08036        -0.000944      0.018197      0.048363
Au     13.32678      5.41717     11.55743         0.267676     -0.625819      0.177433
Au     15.99489      6.20457     12.16059         0.008594     -0.040965      0.024449
Au     10.67632      4.88103     10.86175        -0.116943     -0.267852      0.128241
Au     15.34788      8.88070     13.01288         0.269002     -0.081406      0.182824
Au     11.95002      8.30487     15.01350         0.066583     -0.098927      0.283487
Au     12.64693      8.24520     12.19044         0.187919     -0.421576      0.830799
Au     10.57412      9.93002     13.03476        -0.046837     -0.203840      0.874850
Au     11.35736      5.92766     13.49363        -0.069625     -0.197979      0.167027
Au     10.00492      7.62712     11.55220        -0.533304     -0.715052      0.327820
Au      9.85112     10.01015     15.77283         0.028576     -0.010742      0.003408
Au      6.40583     12.46040     13.27363        -0.291474      0.045230      0.295978
Au      9.16755     12.24468     12.47132        -0.379215      0.757000      0.958588
Au      5.83027     14.77875     10.04359        -0.060812     -0.073603     -0.055341
Au      4.48037     12.50438     11.28197         0.012028     -0.036447     -0.078641
Au      5.80509     10.07947     11.78779        -0.329725     -0.146358      0.169216
Au      8.41320     12.37318     15.23826        -0.040910      0.006788      0.065450
Au      7.22162     12.31016     10.46522        -0.930309      0.630129      0.141602
Au      7.74541     14.71621     12.04557        -0.072151      0.397642      0.117630
Au     12.45257     14.40518     13.40113         0.078010     -0.063232     -0.051823
Au     13.22421     14.38409     10.66204         0.109747      0.127756      0.033412
Au     14.59543     12.75944     12.60665         0.199982      0.174691      0.081248
Au     13.92095     10.40644     11.01474         0.702000      0.635456      0.202372
Au     13.29683     10.54638     13.85445         0.304082      0.116360      0.572654
Au      9.72068     14.58120     14.04092        -0.035102      0.061036      0.078590
Au     10.47678     14.68039     11.31735         0.080958      0.559561      0.114239
Au     11.23819     12.21856     14.68683        -0.063176      0.162032      0.291285
Au     15.31448     12.69189      9.80285         0.172464      0.115171     -0.037382
Au     11.85560     12.08456     11.85721         0.520410      0.701134      0.260882
Au     16.61509     11.02214     11.69855        -0.068304      0.089346      0.008232
