75
# total energy = -210.91543948 eVAu      7.95290     10.00942      4.15821        -0.050214      0.052067      0.049230
Au      5.22872      8.41936      8.23690        -0.021827     -0.050887     -0.004257
Au      7.74331      9.25920      8.97676         0.017183     -0.000593      0.012991
Au      7.29137      6.46706      8.05079        -0.025531      0.038065     -0.019344
Au      8.65720      8.39391      6.37145        -0.027537      0.002129      0.025745
Au      6.54882     10.42757      6.59255         0.006460      0.010095      0.038841
Au     13.98060      6.69359      6.03872        -0.038611     -0.017915      0.016124
Au     12.67672      8.89733      4.89420        -0.006975     -0.049322     -0.042166
Au     15.68377      7.04145      8.27562        -0.020556      0.010216     -0.003701
Au     12.85568      7.31368      8.54128         0.040535     -0.012324     -0.028568
Au     10.10366      8.31008      3.94342         0.050923     -0.013540     -0.004827
Au     12.41125      4.70501      7.51823        -0.016016      0.053083     -0.016679
Au     13.20302      9.85129      9.68404         0.024525     -0.029612     -0.010272
Au     11.06336      6.76781      6.07073         0.018075     -0.018407      0.053634
Au     14.13177      5.07118      9.71380        -0.003571      0.030544     -0.011223
Au     10.01576      7.42472      8.73879         0.010066      0.038009      0.007664
Au     14.65053      9.35463      6.91495        -0.006379     -0.087280      0.060606
Au     15.99019      9.62433      9.43285        -0.003435     -0.037358      0.031376
Au      9.61685      4.89650      7.75331         0.023580     -0.051874     -0.015516
Au     11.42047      9.45587      7.33682        -0.050220     -0.008595     -0.043605
Au      3.83214     13.75324      8.47533         0.108939     -0.026613      0.048331
Au      5.94049     13.26068      6.76307        -0.033039     -0.012868      0.036209
Au      8.14358     12.53923      5.31710         0.030236     -0.005792     -0.065197
Au      4.33297     11.02613      8.39526        -0.010934      0.053408     -0.015120
Au      6.28013     14.87479      9.12900        -0.030295      0.012683      0.015368
Au      6.89360     12.01571      9.18594        -0.048684      0.050737     -0.017350
Au      8.48280     14.36144      7.51258         0.006683      0.004458      0.000125
Au     10.52593     10.93114      4.79420        -0.032174     -0.024985      0.012738
Au     13.51580     13.97315      9.90981         0.014197      0.023915     -0.010583
Au     10.73091     13.37071      6.12695         0.021884      0.036088     -0.025534
Au     13.29300     14.02951      7.11911         0.049017      0.022046     -0.024175
Au     11.04544     14.89898      8.58230         0.034550      0.050088     -0.030616
Au      9.18978     11.24549      7.57002        -0.027848      0.020653     -0.023526
Au     11.78208     12.07922      8.48821        -0.023460      0.006195     -0.032658
Au     14.73106     11.85310      8.21965         0.042863      0.029308     -0.006136
Au     13.02712     11.48890      5.91182         0.034852      0.054225     -0.007701
Au      6.55449      8.68083     12.97931        -0.076996      0.103195      0.052990
Au      8.55867      5.28467     10.32838        -0.030685     -0.029661     -0.026267
Au      5.16355      9.81257     10.77998         0.016763     -0.010242      0.040975
Au      7.45395      6.05275     12.79291         0.000324     -0.125219      0.061242
Au      9.04468      7.81903     14.28175         0.009281     -0.009434      0.028948
Au      6.20008      7.15147     10.55023        -0.049379     -0.019005     -0.053926
Au      8.88004      8.01906     11.34067         0.006392      0.001219     -0.038563
Au     10.34617     10.03955      9.92463        -0.023325      0.014321     -0.003931
Au     14.69253      7.47301     13.71159        -0.021480      0.036075     -0.016892
Au     15.01613      7.40123     10.95848         0.159074     -0.088925      0.040272
Au     13.09899      5.66054     12.26922         0.036040      0.012018     -0.009649
Au     13.37321      9.69365     12.48588         0.056493     -0.043228      0.013896
Au     16.20263      9.56972     12.25759        -0.033981     -0.022925     -0.013918
Au     10.25770      5.71390     12.60275         0.035323     -0.018919      0.030381
Au     13.50157      9.47390     15.28234         0.016572     -0.005079     -0.007620
Au     11.75609      7.81174     11.08460         0.023896     -0.034897     -0.003135
Au     11.34840      4.86074     10.14662         0.035840      0.028417     -0.045019
Au     10.55762      9.90828     12.78378        -0.036865      0.000909     -0.028800
Au     11.85281      7.46160     14.16249         0.071506      0.044810     -0.044648
Au     10.67903      9.74000     15.54196         0.006252      0.014087      0.070924
Au      7.38518     13.32928     14.47407         0.087556     -0.015444      0.031175
Au      9.00283     15.39036     12.97741        -0.047524      0.014239     -0.028030
Au      4.99043     14.00359     13.24909        -0.115592      0.051701      0.031361
Au      8.78410     15.56133     10.13085        -0.024145      0.012416      0.032032
Au      5.77406     11.36507     13.08640         0.011595     -0.151840      0.039868
Au      8.08820     10.49670     14.53945         0.020158      0.070803     -0.042362
Au      4.52325     12.58330     10.87545        -0.035799      0.003754     -0.078678
Au      8.02606     10.77351     11.47496        -0.016038     -0.002054     -0.001468
Au      7.16889     13.69240     11.59963         0.030891      0.037985     -0.138500
Au     11.36612     14.52569     14.19982        -0.014333     -0.013310      0.007414
Au      9.67954     12.63161     12.86793        -0.030108      0.003442      0.033947
Au     12.28379     11.88041     14.48024         0.020074      0.034159      0.036165
Au     15.07734     11.89400     11.03782        -0.028145     -0.067611      0.045135
Au     15.02174     11.59767     13.85151        -0.011644     -0.032278      0.002769
Au     11.32106     14.98390     11.40721        -0.006590     -0.046096      0.024757
Au      9.78330     12.47154     15.64662        -0.041138      0.023924     -0.041328
Au      9.49533     12.81995     10.04909        -0.081841      0.019664     -0.004116
Au     11.98416     11.91619     11.34870         0.005008      0.039195      0.029493
Au     13.61413     13.75727     12.70309         0.019308      0.019789      0.022874
