75
# total energy = -211.37354013 eVAu      8.67704      8.97234      5.92791         0.010791     -0.021605     -0.024828
Au      6.35419      8.11487      9.69932        -0.004322      0.011914      0.030963
Au      9.36954      8.26979      8.78526         0.011656      0.011637     -0.005049
Au      7.52800      6.67050      7.49843         0.021553     -0.011121     -0.010349
Au      6.04978      8.98153      7.03819         0.002432      0.023334      0.008070
Au      9.51323      6.26227      5.60783        -0.007838      0.009463      0.013947
Au     16.74945      7.42735      8.37150         0.002936     -0.000890      0.007103
Au     10.99190      8.74011      4.24969        -0.011529      0.020961      0.002040
Au      9.98699      5.25440      8.23599         0.011684      0.003523     -0.000648
Au     16.48063     10.22979      8.85118         0.001913      0.004641      0.002914
Au     11.51082      7.80701      6.87448        -0.021971      0.015522      0.020832
Au     12.05123      4.99050      6.36469        -0.001611      0.004122      0.010158
Au     15.41783      5.13471      9.61991        -0.006862      0.005749      0.009393
Au     11.68440      6.07051      3.87203        -0.006463      0.003697     -0.016254
Au     14.17548      6.57560      7.49107         0.003795      0.002879      0.000999
Au     11.98223      7.12257      9.57201         0.002280     -0.000301     -0.015560
Au     13.63763      7.69754      4.92369         0.001344     -0.008102     -0.003630
Au     12.74156      4.48467      8.97007        -0.003073     -0.002856     -0.010539
Au     15.42545      9.05076      6.50307        -0.001859     -0.005574     -0.020647
Au     13.30847      9.38684      8.34083        -0.024357      0.002569     -0.004377
Au      4.26041     13.14549      8.74485         0.014985      0.003353      0.010932
Au      6.78695     13.57198      7.55802         0.018204      0.007118     -0.013783
Au      7.62165     11.58618      5.62736         0.006738      0.012339      0.010278
Au      5.07375     11.53103      6.66961         0.013310     -0.007308      0.014530
Au      7.84533     10.75965      8.32137        -0.006037     -0.003573      0.005154
Au      4.87600     10.44159      9.24365        -0.004109     -0.027250     -0.013332
Au      8.63668     14.88813      9.18624         0.008498     -0.007184     -0.028293
Au      9.47416     13.33348      6.86742        -0.003341      0.006882      0.007014
Au     10.31587     11.33014      4.97684         0.019770     -0.012750     -0.009596
Au     12.22369     12.87813      6.43997         0.008962     -0.018395      0.015073
Au     14.75201     11.72947      7.18110        -0.011771      0.004066      0.002477
Au     11.34942     14.55726      8.58160        -0.001666     -0.001740      0.000693
Au     10.69579     10.51455      7.57937         0.011156     -0.016512      0.019810
Au     12.64011     12.11708      9.08128         0.014703     -0.001802      0.003197
Au      9.77521     12.29168      9.73433        -0.018011     -0.000820      0.009953
Au     13.00248     10.37447      5.43088        -0.008384      0.011863      0.008367
Au      7.56385      9.91387     14.02200        -0.006051      0.000770     -0.004662
Au      8.03923      5.88618     10.15474         0.008999     -0.004430      0.011682
Au      8.69971      5.35213     12.83255         0.001912     -0.002081     -0.005217
Au      8.37552      9.98267     11.00642        -0.014100      0.013889     -0.002568
Au      9.22952      7.61776     14.40426         0.008775     -0.004149      0.005496
Au      7.13967      7.62928     12.37618        -0.006737      0.014620     -0.014581
Au     11.21057      9.83736     10.28879        -0.004442      0.012690     -0.018251
Au     17.32237      8.42570     10.93742        -0.000046     -0.014172     -0.010212
Au     14.65579      7.77227     10.22212        -0.010731     -0.000591      0.013003
Au     14.01723      6.62328     14.06030        -0.006579      0.010693     -0.013891
Au     13.43022      5.09774     11.66869         0.002583     -0.001052     -0.003256
Au     16.01769      6.20639     12.16408        -0.009084     -0.000309     -0.014258
Au     10.72046      4.78572     10.92754        -0.013078     -0.004197     -0.003087
Au     15.37563      8.89305     13.02382        -0.011316      0.001877      0.009955
Au     11.95380      8.29939     15.01403         0.004466      0.006897     -0.009918
Au     12.65841      8.19968     12.19969        -0.007813     -0.012292      0.026497
Au     10.48366      9.94794     13.06738        -0.007630     -0.002416      0.007898
Au     11.38362      5.85669     13.50144         0.004474      0.000391      0.002808
Au      9.92858      7.57344     11.54351        -0.001948     -0.001530      0.019483
Au      9.83304     10.00320     15.77204         0.000609     -0.002479     -0.005079
Au      6.22891     12.30668     13.41110        -0.007300     -0.003960     -0.000768
Au      8.98891     12.37141     12.50090         0.002407     -0.015592      0.001329
Au      5.94259     14.95678      9.96785        -0.001448      0.009307     -0.008505
Au      4.37857     12.34506     11.38030        -0.012022     -0.000625      0.004610
Au      5.65481      9.92024     11.86886         0.025527     -0.037277     -0.001084
Au      8.34266     12.36938     15.25073         0.006824     -0.005940     -0.009438
Au      7.01258     12.44247     10.46379         0.014669     -0.014787     -0.002876
Au      7.84426     14.97081     11.95561        -0.017478      0.014216     -0.006466
Au     12.45708     14.37510     13.39109        -0.001415     -0.007735     -0.018048
Au     13.27046     14.38311     10.65092        -0.004731     -0.005729      0.005060
Au     14.59452     12.72571     12.59254         0.000684      0.004808     -0.002192
Au     13.96130     10.40742     10.98917         0.005444      0.025770     -0.000004
Au     13.32988     10.59223     14.00408         0.004779     -0.004748      0.008960
Au      9.69462     14.62201     14.02970         0.004828     -0.006045      0.002941
Au     10.56633     14.95283     11.30361         0.019412     -0.000310     -0.005334
Au     11.16485     12.25987     14.73000         0.001216      0.000570      0.007390
Au     15.35257     12.69085      9.74854        -0.000835     -0.005492      0.003586
Au     11.79601     12.14530     11.86011         0.001588      0.018310      0.003740
Au     16.61941     11.01758     11.63113        -0.017915      0.005279     -0.011751
