75
# total energy = -211.43358757 eVAu     14.97103     17.02108      9.25414        -0.008294     -0.001242     -0.020525
Au     16.01247     15.10917     14.45121        -0.010837     -0.009657     -0.001815
Au     11.68022     19.20030     12.09421        -0.001056      0.025838     -0.014048
Au     21.12573     12.35482     11.71874        -0.010036      0.013633      0.007388
Au     17.40546     15.66385      9.64140        -0.004779     -0.006801      0.015278
Au     17.04941     18.32011     10.65083         0.018577     -0.002175      0.012749
Au     22.10566     12.95163     14.33038        -0.002353     -0.020587     -0.003156
Au     13.44168     14.79427     10.19743        -0.005540      0.007891      0.014013
Au     15.14609     10.10893     14.32249        -0.009177     -0.003905     -0.004713
Au     19.30746     12.75273     13.89491        -0.013552      0.000347      0.007018
Au     12.27781     17.41142     10.03323        -0.001297      0.011096      0.014153
Au     19.08653     19.39002     12.31911         0.004818      0.000654     -0.005540
Au     15.87947     13.37554     10.49134        -0.003161      0.009374     -0.004799
Au     16.91930      9.95561     12.17025        -0.013363      0.003904      0.005343
Au     10.95622     13.90489     13.70373         0.009702     -0.030052      0.022258
Au     18.34580     12.03661     10.96325        -0.009073      0.012981      0.004105
Au      9.89869     16.50169     13.52775        -0.028807     -0.062245      0.027616
Au      9.67332     19.33612     13.94787         0.007572      0.005887     -0.016692
Au     13.93573     13.90714     12.87654         0.012659     -0.012776     -0.015747
Au     12.54374     11.45663     13.84891         0.013395     -0.000619      0.005905
Au     19.65299     10.17244     12.72510        -0.000289      0.009528      0.013838
Au     12.67945     16.50885     12.66892        -0.010790      0.006512     -0.003703
Au     16.50261     12.48774     13.26861         0.002163      0.001170      0.009339
Au     16.43322     19.99570     12.92490         0.010281      0.000573      0.006519
Au     19.81779     14.29518     10.21001        -0.005904      0.006912     -0.003959
Au     13.76893     20.35177     13.64384         0.002376      0.028859      0.004575
Au     11.98442     12.63703     11.35629         0.000278      0.008965     -0.015313
Au     15.42130     16.10448     11.82859         0.016229     -0.002856     -0.017781
Au     10.72862     15.20212     11.17912         0.014950     -0.004602      0.001994
Au     17.49571     17.31893     13.35412         0.009802      0.018914     -0.000769
Au     21.11353     15.02241     12.70585         0.020335      0.008348     -0.001783
Au     14.42372     11.22369     11.71176        -0.008079      0.018221      0.000625
Au     14.75934     17.71263     14.17688         0.024860     -0.016270      0.005849
Au     20.49200     17.49148     13.87813        -0.004290      0.006100      0.003462
Au     17.95554     14.66469     12.27471        -0.008269      0.002545      0.019593
Au     19.56130     16.88258     11.20419        -0.005904      0.000258      0.001050
Au     14.33427     18.99806     11.22334        -0.009207      0.009114      0.003930
Au     12.37252     19.45915     18.75886        -0.016324      0.005970     -0.008867
Au     12.42561     14.79729     18.17572         0.015728     -0.012653     -0.008704
Au     17.79266     19.22272     17.77357         0.010451     -0.003147     -0.000107
Au     13.90768     17.57304     16.89196         0.018228      0.002492      0.004391
Au      9.06875     17.52342     15.98356        -0.001663     -0.005052      0.000073
Au     18.53368     19.41969     15.04984        -0.002999     -0.010572     -0.014724
Au     19.03894     17.20170     19.29375         0.023206     -0.011360      0.004242
Au     19.55914     13.22815     19.21660         0.005929      0.024314      0.010297
Au     21.62642     15.41305     15.51163        -0.003126      0.012266     -0.022591
Au     20.64877     10.71205     15.31670         0.007133      0.003241     -0.011604
Au     18.91499     11.21174     17.43556        -0.030197     -0.002765     -0.014136
Au     18.86673     15.31078     14.94576        -0.004459      0.009637      0.006876
Au     18.13686     15.15016     17.62292         0.022067     -0.009565     -0.006804
Au     21.21796     12.91850     16.98811        -0.042320      0.026145      0.005454
Au     16.10247     10.70513     16.98909        -0.006671     -0.005387     -0.002031
Au     20.95465     15.43336     18.18324        -0.010037     -0.007642      0.017981
Au     10.34708     15.13561     16.16008         0.006692     -0.005241      0.002773
Au     17.60700     14.94696     20.35741         0.016524     -0.008460      0.004181
Au     15.11352     19.66215     18.37899        -0.006153     -0.022119     -0.021734
Au     10.55660     19.77514     16.66165        -0.017314      0.002249     -0.002529
Au     10.99648     17.18448     17.97049        -0.004103     -0.015423      0.007673
Au     17.40416     13.06782     15.94566        -0.005984      0.005322      0.015065
Au     17.91596     10.12815     14.93896        -0.005740     -0.016750      0.017568
Au     15.90082     20.12373     15.69543         0.000345     -0.012007     -0.014687
Au     15.28793     15.00791     17.17669         0.004131     -0.010741     -0.003311
Au     16.18139     17.18026     19.21768         0.015276     -0.000180      0.027950
Au     13.37468     17.01175     19.60960         0.015191      0.000001     -0.028916
Au     12.04418     18.21783     14.84063         0.013725      0.010399     -0.013994
Au     13.34079     10.49192     16.41281         0.000409      0.003466     -0.003615
Au     13.09458     15.43752     15.26117        -0.009641      0.011680      0.004652
Au     14.05191     12.48508     18.24786        -0.001994      0.003177     -0.018602
Au     16.79950     12.69659     18.86609        -0.004490      0.010503      0.001482
Au     11.81973     12.82352     16.25505        -0.001611     -0.009721      0.012379
Au     14.56477     12.83788     15.41853         0.000491      0.003089      0.008594
Au     14.84885     14.64591     19.87961        -0.002466     -0.010009     -0.005952
Au     16.79614     17.22109     16.17264         0.002211     -0.001059     -0.006561
Au     19.91804     17.54707     16.64558        -0.000319     -0.005583      0.006967
Au     13.22653     20.48657     16.32544         0.005934      0.007647     -0.025386
