75
# total energy = -211.27285869 eVAu      8.69440      8.93972      5.88214        -0.023968      0.004043     -0.019229
Au      6.41019      8.19900      9.63096        -0.030496      0.014254      0.013458
Au      9.41574      8.27742      8.82143         0.011210      0.022964      0.006515
Au      7.57072      6.74816      7.44758        -0.058600     -0.043774     -0.001208
Au      6.07045      9.07003      6.95543         0.001888     -0.032212      0.017134
Au      9.51191      6.24681      5.53567         0.032964      0.004714      0.001987
Au     16.74787      7.44961      8.38869        -0.032355     -0.020029      0.009575
Au     10.98036      8.70261      4.19039         0.003333     -0.023140      0.014852
Au      9.99164      5.28589      8.18130         0.014448      0.005909      0.000416
Au     16.43593     10.22820      8.85799         0.026957     -0.015339      0.011179
Au     11.47443      7.84160      6.88510         0.024855     -0.007567      0.005009
Au     12.06211      5.07519      6.28786         0.001099     -0.015983     -0.005934
Au     15.37843      5.13356      9.64654        -0.008541      0.028090     -0.021754
Au     11.62827      6.03982      3.73587         0.027093      0.018814      0.065312
Au     14.17901      6.58301      7.50788         0.022305     -0.009978      0.018404
Au     12.01705      7.13242      9.59296        -0.015410     -0.010791     -0.035508
Au     13.56995      7.61496      4.93100         0.008617      0.005953     -0.022878
Au     12.70650      4.50828      8.90974         0.018668     -0.033015      0.046630
Au     15.37492      9.01345      6.48117         0.044124      0.029010      0.016441
Au     13.33183      9.39530      8.37956        -0.011998     -0.026977     -0.054573
Au      4.10251     13.15857      8.63261         0.074926     -0.025417      0.029693
Au      6.70809     13.47728      7.56813        -0.043377      0.031695      0.011519
Au      7.52180     11.50014      5.63062         0.021918      0.017128     -0.009399
Au      4.92039     11.54514      6.55483         0.030116      0.015588      0.053113
Au      7.91789     10.73367      8.32955        -0.012965      0.027557      0.037884
Au      4.92305     10.51035      9.17206        -0.047488      0.022943      0.012827
Au      8.54500     14.78700      9.21673         0.046903      0.022062     -0.011262
Au      9.39535     13.22785      6.89653         0.001901      0.034822      0.014044
Au     10.25093     11.24713      5.01281        -0.004683      0.045496     -0.062738
Au     12.15745     12.81805      6.44995         0.032562      0.036311      0.008047
Au     14.71980     11.70964      7.17935         0.025675      0.014293     -0.037980
Au     11.26997     14.51916      8.59384         0.028952      0.037635     -0.038750
Au     10.73986     10.50933      7.62902        -0.009374     -0.007187      0.011087
Au     12.68115     12.14185      9.10333        -0.039929     -0.053237      0.012999
Au      9.85814     12.26615      9.79073        -0.076053      0.021954     -0.015964
Au     12.95909     10.31928      5.43692         0.019810     -0.003512      0.014959
Au      7.57961      9.96556     13.99131         0.011413      0.007366     -0.000746
Au      8.05968      5.94799     10.11601        -0.020088     -0.026312     -0.015538
Au      8.67648      5.40147     12.80436        -0.024090     -0.097929      0.044821
Au      8.46634      9.97033     11.04531        -0.047658      0.042003     -0.023351
Au      9.22747      7.63892     14.40373         0.002926      0.016401      0.028853
Au      7.15717      7.69211     12.32503        -0.062007     -0.013159      0.029407
Au     11.28461      9.83945     10.34387        -0.021135     -0.056345     -0.046905
Au     17.33657      8.43964     10.95758        -0.034628     -0.028875     -0.011824
Au     14.67298      7.79015     10.26294         0.090597     -0.069320     -0.033974
Au     14.00460      6.58807     14.09203         0.027152     -0.003944     -0.021009
Au     13.38273      5.10557     11.65590         0.046955     -0.002047     -0.014319
Au     15.99654      6.17708     12.18557        -0.006493      0.036884     -0.028946
Au     10.68685      4.81158     10.89313         0.013420     -0.047679     -0.014616
Au     15.40836      8.87462     13.06602        -0.004106      0.001843     -0.005504
Au     11.96426      8.27354     15.06104         0.001911      0.042848     -0.013869
Au     12.70517      8.20289     12.24956        -0.047356     -0.024971      0.026939
Au     10.56666      9.95048     13.11996        -0.040310     -0.061658      0.029703
Au     11.36579      5.85381     13.50257         0.014983     -0.009968      0.021947
Au      9.97671      7.58162     11.57653         0.046277      0.031059      0.001155
Au      9.83691     10.00159     15.79251         0.000386      0.013514      0.000879
Au      6.28357     12.40328     13.37156         0.003345     -0.014491      0.000639
Au      9.07826     12.35123     12.55165        -0.052150      0.045074      0.023436
Au      5.85224     14.81381     10.01659        -0.018998      0.027730     -0.019218
Au      4.45225     12.45569     11.29749        -0.033688     -0.010636     -0.007986
Au      5.70593     10.00926     11.80377        -0.004356     -0.034325      0.021583
Au      8.36001     12.37642     15.28026         0.001113      0.004827     -0.026927
Au      7.11285     12.38655     10.47623         0.003979     -0.008324     -0.020032
Au      7.77245     14.88497     12.01470         0.016415      0.005802     -0.000452
Au     12.45703     14.41165     13.40001        -0.002361     -0.022877     -0.016188
Au     13.23590     14.39909     10.66227         0.019872      0.026702      0.014289
Au     14.64003     12.78851     12.60391        -0.043568     -0.033304      0.018610
Au     14.00141     10.42086     11.03497         0.041876      0.046504      0.002056
Au     13.38446     10.59343     14.03565        -0.018533      0.010760      0.002954
Au      9.70640     14.63911     14.06497        -0.022864     -0.017739     -0.023990
Au     10.50487     14.91757     11.32007         0.012041     -0.008665      0.013344
Au     11.20961     12.27065     14.77043        -0.015008      0.001448      0.004356
Au     15.35815     12.69808      9.76264         0.042089      0.021168     -0.001628
Au     11.87168     12.13502     11.91535         0.032527      0.089297     -0.003121
Au     16.63948     11.03522     11.66428        -0.014966     -0.011742     -0.030731
