75
# total energy = -211.14072906 eVAu     14.97906     16.98042      9.19757         0.026725     -0.006958     -0.011065
Au     16.04932     15.05362     14.39024         0.029909      0.045712      0.018096
Au     11.57516     19.00068     12.05855        -0.032798      0.038633      0.058195
Au     21.11509     12.39735     11.73993        -0.007574     -0.029492      0.012324
Au     17.42773     15.64432      9.60179        -0.043917      0.017156     -0.005727
Au     17.00295     18.29710     10.64464         0.031801     -0.003644     -0.022418
Au     22.04028     13.04677     14.32494         0.015829     -0.026786     -0.003562
Au     13.47985     14.73376     10.09393        -0.029093     -0.002294      0.016175
Au     15.11046     10.05070     14.31398        -0.017257     -0.001930      0.010248
Au     19.27624     12.75685     13.87689         0.002841      0.013366      0.045570
Au     12.29791     17.33336      9.95743        -0.034814     -0.021577     -0.003063
Au     18.98999     19.44112     12.27597         0.016083     -0.020535      0.008058
Au     15.90612     13.33028     10.43819        -0.018741      0.021552      0.000063
Au     16.92670      9.90623     12.19225         0.008137     -0.006540     -0.018163
Au     11.03349     13.95374     13.66435         0.008236      0.008954      0.002283
Au     18.35178     12.02781     10.96913         0.019192     -0.003948      0.022719
Au      9.95994     16.58804     13.43697         0.003916      0.005902      0.007734
Au      9.96735     19.66346     14.13124        -0.020648      0.017146     -0.076793
Au     14.00290     13.85223     12.79995        -0.027938     -0.015749     -0.012518
Au     12.56840     11.48289     13.80312         0.013496     -0.038694      0.028319
Au     19.63718     10.17215     12.77448         0.022065      0.021328     -0.011417
Au     12.72241     16.43302     12.63946        -0.060265      0.031406     -0.020670
Au     16.52805     12.43187     13.25952         0.049124      0.014833     -0.015456
Au     16.31569     19.90122     12.99608         0.027209      0.027347     -0.008136
Au     19.83396     14.32110     10.20200         0.004248     -0.011578     -0.004610
Au     13.61617     20.20736     13.72463         0.000196      0.026898      0.022570
Au     12.04483     12.60926     11.28301         0.002658      0.011621     -0.002718
Au     15.44146     16.05169     11.76816         0.024931      0.015803     -0.008281
Au     10.75576     15.14644     11.12135         0.008101      0.030620      0.000675
Au     17.51572     17.27360     13.32262         0.024219      0.078618     -0.006941
Au     21.17780     15.12979     12.64486        -0.012053     -0.018255      0.028306
Au     14.46208     11.16657     11.66857        -0.029305      0.029957     -0.006332
Au     14.76973     17.64888     14.16975         0.010740      0.018071     -0.006773
Au     20.46356     17.58525     13.84633         0.024809     -0.001933     -0.025488
Au     17.96938     14.65298     12.24348         0.000718     -0.042083      0.023055
Au     19.55476     16.92476     11.17533        -0.001371      0.024276      0.003606
Au     14.27202     18.87565     11.28193         0.018340      0.007751     -0.013180
Au     12.35329     19.57513     18.95741        -0.001240     -0.029959     -0.006959
Au     12.49949     14.88033     18.16285        -0.002126      0.013561      0.007293
Au     17.75652     19.19166     17.77847         0.009758      0.052656      0.019764
Au     14.05051     17.49970     16.90446        -0.040338      0.041315      0.057618
Au      9.19801     17.62874     15.89794        -0.034782     -0.037736      0.009260
Au     18.47477     19.41748     15.02901        -0.002872      0.003003     -0.005739
Au     19.07706     17.25385     19.34340        -0.011720     -0.009704     -0.004315
Au     19.47845     13.22023     19.28728         0.026536      0.017043     -0.026235
Au     21.63171     15.58454     15.47833         0.015619     -0.036189     -0.012208
Au     20.54043     10.73355     15.37410         0.017119     -0.003310     -0.014600
Au     18.75627     11.13441     17.52723         0.040743      0.001686     -0.026431
Au     18.88761     15.32866     14.93950         0.019252     -0.064919      0.002494
Au     18.21811     15.16531     17.65926         0.033769     -0.020528      0.015167
Au     20.57563     13.20536     16.70804         0.079632     -0.040348      0.032598
Au     16.01711     10.67879     17.01190         0.006070     -0.031041     -0.013571
Au     20.97852     15.53949     18.22229        -0.012815     -0.037798     -0.007930
Au     10.47756     15.25419     16.11461        -0.043257      0.026755      0.006809
Au     17.59446     14.95197     20.39869        -0.002571      0.004626     -0.006662
Au     15.07850     19.61379     18.49408         0.005139      0.002537     -0.019964
Au     10.55227     19.85239     16.86750        -0.031874      0.009153      0.001772
Au     11.07945     17.27075     17.98915        -0.022941     -0.020053     -0.003283
Au     17.42283     13.06529     15.98391         0.072626     -0.012133     -0.027248
Au     17.84990      9.99647     14.98605         0.025463      0.037997     -0.005958
Au     15.84284     20.02878     15.76931        -0.051527     -0.006865     -0.014178
Au     15.41271     14.93020     17.15955        -0.048319     -0.011391      0.026869
Au     16.23711     17.14302     19.20487        -0.032999      0.028569      0.020575
Au     13.43240     17.11333     19.63014         0.004945     -0.026189     -0.001193
Au     12.03252     18.05498     14.98865         0.018597     -0.006848     -0.025178
Au     13.27537     10.49057     16.37470         0.011828      0.040630     -0.015716
Au     13.21101     15.38439     15.23863        -0.018889     -0.000466      0.014130
Au     14.02074     12.50018     18.20826        -0.011595     -0.005552     -0.015309
Au     16.72433     12.65717     18.94557         0.017909      0.039864     -0.027365
Au     11.87740     12.90388     16.21503         0.030966     -0.077560      0.037895
Au     14.63408     12.79238     15.37839        -0.118966     -0.084547      0.075207
Au     14.83932     14.67876     19.85257        -0.030781     -0.012417      0.021142
Au     16.86683     17.15507     16.14789        -0.003195      0.019852     -0.031406
Au     19.94528     17.64668     16.65229        -0.034317     -0.026607      0.010646
Au     13.20332     20.42343     16.43312         0.063403      0.007960     -0.072482
