75
# total energy = -211.08529888 eVAu      7.94523     10.04419      4.23399         0.021644      0.010788     -0.013234
Au      5.18944      8.39635      8.28486         0.046681     -0.024157      0.058836
Au      7.72905      9.27289      8.98520        -0.015946     -0.009785     -0.055248
Au      7.28804      6.48099      8.08836        -0.024583     -0.025452      0.004174
Au      8.57038      8.32337      6.34816         0.030305      0.039641      0.079344
Au      6.53468     10.44753      6.66314         0.008597     -0.008796     -0.056822
Au     13.96937      6.64681      6.03946         0.035605      0.014324     -0.002541
Au     12.71950      8.87321      4.90080        -0.050780     -0.016069      0.021577
Au     15.70486      7.01165      8.29024         0.013016      0.011884      0.007243
Au     12.87726      7.37981      8.50898        -0.079356      0.005830     -0.049185
Au     10.12678      8.35913      3.97151        -0.045218      0.001703     -0.004369
Au     12.39266      4.76392      7.51777         0.013607     -0.058475      0.050720
Au     13.18870      9.86557      9.67024        -0.088132      0.032189     -0.034634
Au     11.02944      6.76958      6.07731         0.001245      0.007183     -0.004235
Au     14.14084      5.12559      9.69177         0.025649     -0.010976      0.018541
Au     10.02165      7.43371      8.72455        -0.026896      0.001488     -0.034522
Au     14.66835      9.30738      6.94709        -0.050597     -0.036595      0.047174
Au     15.98281      9.53276      9.48849        -0.067628     -0.045819      0.017739
Au      9.60657      4.86370      7.78064         0.028111      0.048337     -0.012389
Au     11.32964      9.47909      7.27515        -0.006162     -0.009775      0.131788
Au      3.94695     13.75632      8.53620         0.060124     -0.049551     -0.024248
Au      5.99956     13.28073      6.74965        -0.030409      0.091946      0.058525
Au      8.18302     12.60589      5.26797         0.044878     -0.010228      0.011019
Au      4.30616     11.00391      8.44330        -0.052366      0.018679      0.041639
Au      6.33160     15.01009      9.05709         0.010546     -0.026545     -0.087212
Au      6.81353     12.06997      9.19909         0.003957      0.019793      0.012598
Au      8.52440     14.46407      7.45158        -0.008533     -0.022414      0.009420
Au     10.54114     10.95751      4.80905        -0.005399      0.045150     -0.040657
Au     13.50324     13.94019      9.91490         0.042152      0.012614      0.031406
Au     10.76813     13.40797      6.11200         0.007235      0.036499     -0.037298
Au     13.32616     14.00493      7.13376         0.010947     -0.005424     -0.004969
Au     11.07135     14.94035      8.56018         0.007969      0.004197     -0.016949
Au      9.13226     11.29746      7.55803        -0.018651      0.026058      0.067013
Au     11.71972     12.09899      8.48725        -0.007278     -0.025451      0.017998
Au     14.73996     11.80908      8.24260         0.017212      0.003058     -0.005994
Au     13.04698     11.46144      5.95261         0.023127      0.027059     -0.034716
Au      6.55574      8.66068     13.00928        -0.025274     -0.017604     -0.004675
Au      8.56645      5.25968     10.33355        -0.029867     -0.008094      0.056486
Au      5.08756      9.75813     10.84203         0.022352     -0.049007     -0.036537
Au      7.48573      6.01839     12.81054         0.041055      0.017633     -0.007515
Au      9.07340      7.84320     14.24231         0.006043     -0.041891      0.034479
Au      6.16978      7.12162     10.59127        -0.022495     -0.026820     -0.042864
Au      8.85791      7.99798     11.29619        -0.003170      0.033676      0.047376
Au     10.33341     10.05998      9.92980        -0.007132      0.061481     -0.084140
Au     14.71722      7.48612     13.67328         0.022418      0.005386     -0.032919
Au     15.56436      7.08197     11.07047        -0.001179      0.001607     -0.026506
Au     13.18559      5.66537     12.22642        -0.005852      0.083848      0.003648
Au     13.36306      9.65867     12.44033        -0.018332      0.032822      0.047824
Au     16.19988      9.52351     12.25643        -0.030424     -0.041853      0.035368
Au     10.31127      5.71997     12.58845        -0.018726     -0.004269     -0.020331
Au     13.49887      9.48696     15.25401         0.059018     -0.019907     -0.012137
Au     11.76271      7.78212     11.04714        -0.005606      0.008704     -0.020555
Au     11.36725      4.83256     10.14605         0.073645      0.092823     -0.034844
Au     10.54437      9.90836     12.75519        -0.024568      0.054829     -0.004003
Au     11.88638      7.50323     14.08925         0.062786      0.021120     -0.029054
Au     10.69507      9.77655     15.53139         0.026119      0.063796     -0.069298
Au      7.34930     13.35048     14.39159         0.079814     -0.023026      0.053332
Au      8.96272     15.39008     12.91974         0.013519     -0.019598      0.007297
Au      4.88105     13.93064     13.28198         0.002050      0.056053      0.000830
Au      8.80872     15.63324     10.10759         0.028381     -0.034165     -0.011674
Au      5.72544     11.30934     13.12534         0.036628     -0.064978      0.014321
Au      8.11735     10.52168     14.47519        -0.015400      0.039282      0.013409
Au      4.44599     12.51102     10.93127        -0.046073     -0.056696     -0.063566
Au      7.96691     10.77411     11.44021        -0.012211      0.014498      0.023709
Au      7.03977     13.80040     11.53499         0.070038     -0.014116     -0.026674
Au     11.32678     14.50465     14.16839        -0.018295     -0.003579     -0.016997
Au      9.61681     12.63539     12.81643         0.003191     -0.030570      0.031779
Au     12.35598     11.96828     14.68377         0.012394      0.047104      0.039594
Au     15.02164     11.83369     11.04947         0.021052     -0.064956      0.065321
Au     14.98647     11.55326     13.85473         0.016937     -0.038627     -0.022637
Au     11.32098     14.96020     11.39045        -0.049103     -0.031819      0.023541
Au      9.76184     12.50681     15.59759        -0.035220      0.019907     -0.054052
Au      9.40292     12.86609     10.02869         0.025825     -0.029462     -0.018516
Au     11.96448     11.94751     11.38795        -0.058059     -0.053569     -0.064877
Au     13.63005     13.75939     12.72657        -0.070952     -0.052872      0.038521
