75
# total energy = -211.39608927 eVAu      8.68439      8.96748      5.91425        -0.001907      0.004241      0.021894
Au      6.35144      8.04735      9.73407         0.001340      0.002159     -0.002838
Au      9.33660      8.29184      8.79067        -0.010028      0.005755      0.016913
Au      7.54484      6.62593      7.52781        -0.000693     -0.015695     -0.005765
Au      6.07674      8.93172      7.07677         0.005011     -0.005016      0.002553
Au      9.49790      6.24883      5.61151         0.007868      0.004060      0.002326
Au     16.72748      7.42661      8.36790         0.012088     -0.008424      0.010638
Au     10.99505      8.76476      4.22813         0.005589     -0.003057      0.006998
Au     10.00277      5.24213      8.23623        -0.011423      0.003785      0.000096
Au     16.48127     10.22164      8.84259        -0.001888      0.005887     -0.001608
Au     11.46631      7.83880      6.87161         0.004215     -0.002506     -0.001426
Au     12.05749      5.02535      6.34391        -0.014534      0.001652     -0.006404
Au     15.40336      5.15223      9.60928         0.010824     -0.008145      0.010258
Au     11.64043      6.08638      3.84465         0.009255     -0.004630     -0.002448
Au     14.14929      6.59674      7.49572         0.005740      0.003071     -0.002920
Au     11.95157      7.13944      9.56738         0.000560      0.010294      0.009330
Au     13.60941      7.67568      4.92305        -0.004584     -0.002197      0.004782
Au     12.73224      4.49927      8.95625         0.006498      0.006250      0.005976
Au     15.40495      9.04200      6.49463        -0.009134     -0.003329      0.015669
Au     13.27442      9.39862      8.34199         0.006020      0.003014      0.003934
Au      4.40583     13.11526      8.83475         0.006115      0.005196      0.017371
Au      6.85456     13.62578      7.51388         0.004509     -0.004311      0.008688
Au      7.70005     11.61248      5.62495         0.007483      0.001315      0.006537
Au      5.18432     11.51009      6.73407        -0.014880      0.008380     -0.000756
Au      7.80612     10.78761      8.32701         0.007173     -0.001290      0.004404
Au      4.85283     10.36331      9.26590         0.014079     -0.010264      0.006465
Au      8.71142     14.95439      9.13094         0.016609     -0.007697     -0.015859
Au      9.54138     13.37895      6.84104         0.006449     -0.008246     -0.004152
Au     10.37878     11.35317      4.96715         0.008014      0.000694     -0.013045
Au     12.27943     12.88383      6.44227        -0.005954     -0.014914     -0.001032
Au     14.76326     11.72415      7.18921        -0.003892     -0.008764     -0.003807
Au     11.41124     14.57745      8.56860         0.010861      0.008730     -0.001895
Au     10.66311     10.54158      7.58317        -0.005244      0.013776      0.013303
Au     12.62855     12.12168      9.09201        -0.003700     -0.010036      0.006523
Au      9.73128     12.32204      9.72517        -0.027910      0.009906      0.005894
Au     13.02985     10.36963      5.42224        -0.017146      0.004317     -0.002836
Au      7.55753      9.86684     14.04420        -0.002653     -0.009121     -0.005453
Au      8.06333      5.84308     10.18278         0.010568      0.002136     -0.016970
Au      8.72210      5.32271     12.86235        -0.002281      0.003592     -0.015510
Au      8.32664      9.99515     11.00039         0.003991      0.012724     -0.002023
Au      9.24569      7.59734     14.42349        -0.007401      0.009311      0.000462
Au      7.14277      7.57703     12.40717         0.008928     -0.007755     -0.000764
Au     11.16669      9.86141     10.28870         0.002699      0.007215      0.011795
Au     17.30819      8.41648     10.93050        -0.000968     -0.002413      0.005695
Au     14.62823      7.78905     10.22874        -0.016642      0.002457     -0.008555
Au     14.01218      6.63772     14.04788        -0.001029      0.002038      0.004039
Au     13.42799      5.09615     11.66132        -0.011125     -0.000518      0.000019
Au     16.00448      6.21217     12.15523         0.015013      0.004566     -0.009186
Au     10.72583      4.77972     10.93591         0.000039      0.017736     -0.013096
Au     15.35839      8.90005     13.01564         0.001397      0.002084      0.011547
Au     11.95546      8.31438     15.01050         0.011931     -0.001932     -0.004399
Au     12.62555      8.21528     12.20213         0.005639     -0.010419     -0.005553
Au     10.44496      9.96351     13.06727        -0.004950      0.001635     -0.002404
Au     11.39246      5.85104     13.50948         0.018522      0.003972     -0.010143
Au      9.90744      7.57914     11.55531        -0.002686      0.009321     -0.015826
Au      9.83557      9.99658     15.77975         0.004111      0.005761     -0.002635
Au      6.18825     12.22129     13.43144        -0.016549     -0.014249     -0.012969
Au      8.92253     12.38035     12.46936        -0.002437      0.000972     -0.003617
Au      6.03411     15.07346      9.87557         0.009709      0.012391     -0.004925
Au      4.30331     12.20535     11.43335        -0.004023     -0.014104      0.007945
Au      5.63447      9.82635     11.89583        -0.008230     -0.008347      0.007039
Au      8.34114     12.34548     15.22387        -0.012005      0.009744      0.000549
Au      6.93143     12.48069     10.46259         0.006629      0.015537      0.029742
Au      7.89287     15.02531     11.89559        -0.005230      0.002958     -0.017826
Au     12.46496     14.37419     13.39474        -0.008450     -0.016444      0.008301
Au     13.29747     14.38550     10.66090        -0.011530     -0.005899     -0.023113
Au     14.59233     12.72785     12.59092         0.002249     -0.016019      0.015522
Au     13.92776     10.42348     11.00152        -0.003665     -0.000526     -0.017481
Au     13.32675     10.60680     14.01319        -0.016106     -0.001527     -0.018046
Au      9.69399     14.59959     13.99706        -0.006871      0.005068     -0.001935
Au     10.60836     14.97328     11.28305         0.000368      0.004204      0.002073
Au     11.15693     12.26014     14.73503         0.005693      0.001543     -0.000308
Au     15.35433     12.68746      9.74439        -0.000217     -0.010464      0.002390
Au     11.75046     12.16735     11.86332         0.013642      0.006330     -0.012246
Au     16.60132     11.00956     11.61684         0.000539     -0.007521      0.004104
