75
# total energy = -210.88211576 eVAu      7.95124     10.01459      4.14708        -0.052132     -0.051843      0.042671
Au      5.23230      8.42146      8.22761        -0.046703     -0.016201     -0.018629
Au      7.74378      9.25600      8.97637         0.036307      0.023042      0.045803
Au      7.28270      6.46680      8.04430         0.055906      0.000823     -0.070774
Au      8.67374      8.41378      6.38621        -0.004171     -0.014947     -0.052839
Au      6.54534     10.43236      6.58286         0.014570     -0.036555      0.048162
Au     13.97450      6.69863      6.03722        -0.000521     -0.028152     -0.009951
Au     12.65921      8.89299      4.88607         0.060379      0.025513      0.008147
Au     15.67266      7.04115      8.27784         0.043070      0.018822     -0.009590
Au     12.85727      7.29671      8.54461        -0.016594      0.029772     -0.033916
Au     10.10501      8.30166      3.93361        -0.014946     -0.026017      0.045908
Au     12.41074      4.69621      7.51696         0.035731      0.016440     -0.021443
Au     13.20463      9.84108      9.68425         0.016438      0.060324     -0.017223
Au     11.08031      6.76236      6.07620        -0.074327      0.027164      0.024113
Au     14.13853      5.07501      9.71616        -0.009318     -0.034488     -0.002660
Au     10.01716      7.42963      8.74919        -0.022164     -0.033880     -0.015364
Au     14.63631      9.35250      6.92364        -0.025428     -0.022108      0.018769
Au     15.98399      9.63780      9.43050         0.036808     -0.023717      0.002958
Au      9.62605      4.89198      7.74925        -0.050511      0.026501      0.003474
Au     11.43315      9.45251      7.34605        -0.029455      0.004951     -0.083127
Au      3.83189     13.74723      8.46866        -0.043273      0.053175      0.014549
Au      5.92146     13.24865      6.76273         0.069522      0.008867     -0.003409
Au      8.13414     12.51942      5.31893         0.028680      0.103661     -0.030897
Au      4.33822     11.03581      8.37908        -0.008569     -0.047975      0.005531
Au      6.25795     14.85334      9.15521         0.067628      0.046839     -0.051731
Au      6.89862     12.00863      9.18093        -0.005946      0.026941     -0.019821
Au      8.48233     14.33725      7.52556        -0.063541      0.003367      0.019374
Au     10.51423     10.92041      4.79480         0.046701     -0.002977      0.035204
Au     13.52464     13.98342      9.90825         0.002123      0.003067     -0.002491
Au     10.72931     13.36749      6.11807         0.016320      0.038454     -0.003504
Au     13.29751     14.03600      7.11651         0.026745      0.055188     -0.038235
Au     11.04754     14.90215      8.58448         0.007862      0.028448     -0.017524
Au      9.20201     11.24460      7.56955        -0.047084      0.004200     -0.008369
Au     11.79553     12.08392      8.47572        -0.035243     -0.034050      0.028807
Au     14.73954     11.87077      8.21155         0.028004     -0.037988      0.029716
Au     13.03011     11.50347      5.89725         0.006505     -0.050367     -0.007338
Au      6.53929      8.69414     12.98202         0.027722     -0.088379      0.034320
Au      8.54862      5.28435     10.31833         0.003520     -0.002241      0.002652
Au      5.18640      9.82106     10.76990        -0.024188      0.005203     -0.020839
Au      7.44667      6.04819     12.79223         0.001772     -0.037147      0.037637
Au      9.04081      7.80950     14.29620         0.007336      0.023987     -0.002969
Au      6.20276      7.14332     10.53181        -0.025769      0.019742      0.068173
Au      8.88237      8.02066     11.36149        -0.033318     -0.037420     -0.076957
Au     10.34736     10.03946      9.92370        -0.018137      0.026540     -0.010646
Au     14.69262      7.47929     13.70972         0.005869     -0.022339      0.027432
Au     14.92829      7.45140     10.94470         0.175597     -0.114894      0.007470
Au     13.08817      5.66374     12.27281         0.036335     -0.023251      0.008969
Au     13.38101      9.69420     12.49997        -0.053339      0.012092     -0.041613
Au     16.19616      9.56257     12.25625         0.039858      0.015121      0.003066
Au     10.25466      5.70481     12.60518         0.011161      0.019236      0.027354
Au     13.51173      9.47395     15.29060        -0.022846      0.021120      0.021747
Au     11.75755      7.81807     11.08693        -0.014487     -0.050450      0.029643
Au     11.34704      4.88423     10.13610         0.019554     -0.000656     -0.003453
Au     10.55187      9.90298     12.78246         0.019423      0.020221      0.035087
Au     11.85793      7.46801     14.16939         0.002808      0.023189     -0.049370
Au     10.67713      9.73836     15.55478         0.012997      0.005914      0.005089
Au      7.40417     13.32899     14.49926        -0.086925      0.016682     -0.098937
Au      8.99736     15.39306     12.98606        -0.004376      0.002616     -0.015732
Au      5.00703     14.02022     13.23761         0.029757     -0.080354      0.001708
Au      8.77054     15.54500     10.14190         0.051208      0.065958     -0.035053
Au      5.78050     11.35407     13.08302        -0.050441      0.112392      0.043147
Au      8.08743     10.50348     14.54773         0.038095     -0.000860     -0.038684
Au      4.53583     12.60142     10.85737         0.007143     -0.041952      0.063574
Au      8.03718     10.77266     11.48087        -0.029747     -0.001795     -0.020561
Au      7.20131     13.67619     11.58914        -0.110809     -0.012844      0.057645
Au     11.36986     14.52980     14.21234        -0.021702     -0.005195     -0.016342
Au      9.68641     12.63249     12.88579         0.000749     -0.007214     -0.064329
Au     12.27140     11.86708     14.44266         0.015340      0.010479      0.054549
Au     15.07841     11.89446     11.04573        -0.036995     -0.041071     -0.010319
Au     15.02743     11.59868     13.85525        -0.014620     -0.005417      0.013361
Au     11.31926     14.97422     11.41200        -0.023878     -0.033245      0.023778
Au      9.78458     12.47218     15.65372         0.030472      0.001224      0.033083
Au      9.50650     12.81026     10.05103        -0.037915      0.026309     -0.018405
Au     11.99118     11.91443     11.33784        -0.008279      0.015400      0.044884
Au     13.61218     13.75870     12.70110         0.031681      0.019003      0.025492
