75
# total energy = -211.35092417 eVAu      8.65307      8.95634      5.86109         0.017555      0.003338      0.034189
Au      6.36444      8.16173      9.67909         0.006718     -0.012172      0.014860
Au      9.38711      8.27712      8.80009         0.015186      0.028267      0.024004
Au      7.55245      6.71521      7.47884        -0.028362     -0.030222     -0.012816
Au      6.06233      9.03133      7.01834        -0.001744     -0.010375     -0.001044
Au      9.52642      6.26761      5.58008        -0.003872     -0.000100      0.009694
Au     16.75053      7.43139      8.37460        -0.001630     -0.005338      0.007559
Au     10.98635      8.72177      4.23703         0.004396      0.007198      0.007338
Au     10.00054      5.28063      8.21792        -0.015866     -0.009270      0.018393
Au     16.49361     10.23274      8.84067        -0.016461      0.011678      0.002398
Au     11.50133      7.81636      6.88233         0.010858     -0.005534     -0.008089
Au     12.06945      5.01373      6.34516        -0.008680     -0.004557      0.008592
Au     15.39768      5.12653      9.62208         0.017289      0.007717      0.002848
Au     11.69447      6.06040      3.83969        -0.015104     -0.002701     -0.020619
Au     14.19848      6.56063      7.48395        -0.014485      0.017629     -0.001002
Au     11.99735      7.10531      9.57188        -0.002728      0.023357      0.000077
Au     13.63244      7.67772      4.92912         0.002661     -0.000980      0.008031
Au     12.73191      4.46962      8.95325         0.000528      0.005497      0.002223
Au     15.43292      9.04486      6.48982        -0.020002     -0.006673      0.011864
Au     13.32156      9.37979      8.33945        -0.005949     -0.007647      0.008433
Au      4.18408     13.15654      8.69193         0.008956      0.009308      0.037558
Au      6.73677     13.56643      7.54897         0.036028     -0.010625      0.006160
Au      7.57889     11.55881      5.64528         0.012966      0.005260      0.001773
Au      5.01311     11.54349      6.64115         0.006439     -0.010086     -0.021376
Au      7.86875     10.75889      8.34084         0.008811     -0.007237     -0.006245
Au      4.84034     10.46006      9.21914         0.032762     -0.010265      0.010478
Au      8.59191     14.84900      9.19418         0.017124     -0.008254     -0.001190
Au      9.43456     13.29854      6.88908        -0.000271      0.001767     -0.004446
Au     10.28584     11.29770      4.99758        -0.007211      0.001793     -0.022826
Au     12.19150     12.84371      6.45971         0.008084      0.021451     -0.007359
Au     14.74548     11.71938      7.18439         0.006541      0.006045     -0.003916
Au     11.32175     14.53400      8.59206         0.002385      0.013078     -0.014550
Au     10.70419     10.50445      7.59995        -0.000010     -0.002195      0.026100
Au     12.66362     12.11588      9.09844        -0.011748     -0.016178      0.018383
Au      9.80926     12.27970      9.76417        -0.037193     -0.008235     -0.002449
Au     12.98214     10.34850      5.45086         0.004593      0.012647     -0.010522
Au      7.57894      9.94349     13.99497        -0.004838     -0.007781      0.008107
Au      8.04934      5.92434     10.14183         0.007408     -0.005187     -0.008502
Au      8.69391      5.36868     12.82416        -0.015634     -0.024803     -0.000054
Au      8.40986      9.97811     11.03010        -0.004426      0.013795     -0.026739
Au      9.23890      7.62205     14.40903        -0.010019      0.031801      0.011667
Au      7.14697      7.65513     12.36151        -0.009935      0.013693     -0.009860
Au     11.24767      9.82357     10.30586        -0.026522      0.015993     -0.028852
Au     17.31967      8.42600     10.93741        -0.012480     -0.014735      0.004180
Au     14.65495      7.77392     10.22615         0.024996     -0.007401     -0.002163
Au     14.01630      6.60217     14.05788        -0.009975      0.012594      0.014021
Au     13.41927      5.07734     11.66400        -0.018651      0.011926      0.010851
Au     16.00405      6.20018     12.15642         0.015951      0.011311     -0.009602
Au     10.70970      4.77997     10.91797         0.000785      0.013197     -0.004734
Au     15.37954      8.89653     13.04247         0.003659     -0.008360     -0.012197
Au     11.96877      8.29990     15.02423        -0.010191      0.006112      0.000800
Au     12.67626      8.19340     12.21545        -0.004412     -0.016001      0.015760
Au     10.51800      9.94734     13.08834        -0.005635     -0.005628      0.018211
Au     11.38006      5.84514     13.50708         0.028578     -0.001514     -0.011317
Au      9.95770      7.57211     11.56754        -0.012567      0.006290     -0.034276
Au      9.83111     10.01092     15.77816         0.013133     -0.017550     -0.010272
Au      6.24926     12.35630     13.38619        -0.008744     -0.011633      0.005253
Au      9.02226     12.36630     12.52941        -0.006447      0.000858     -0.016160
Au      5.89106     14.89547      9.98925         0.010389      0.010803      0.002119
Au      4.40571     12.39785     11.33789        -0.014027      0.004540      0.004732
Au      5.66840      9.96102     11.83880         0.012966     -0.029486      0.007278
Au      8.33959     12.37947     15.26414         0.000295      0.000406     -0.008483
Au      7.04988     12.42291     10.46990         0.036292     -0.008175      0.003425
Au      7.80899     14.93935     11.97374        -0.001690      0.005773     -0.012687
Au     12.44768     14.39123     13.38543         0.012215     -0.008085      0.017929
Au     13.26499     14.38612     10.66078        -0.002964     -0.005894     -0.020011
Au     14.60452     12.73487     12.59871        -0.002129      0.004707      0.004860
Au     13.97658     10.40624     11.00390         0.008196      0.031069     -0.016652
Au     13.35126     10.60580     14.03716        -0.018373     -0.006505     -0.008155
Au      9.68917     14.64077     14.03755         0.001372     -0.011859      0.000169
Au     10.54097     14.92623     11.30241        -0.011536      0.015880      0.012372
Au     11.17274     12.27757     14.75282         0.005730     -0.019439     -0.014293
Au     15.36515     12.69996      9.75249        -0.013502     -0.009386     -0.017683
Au     11.82262     12.13771     11.88654         0.012782      0.007551     -0.019516
Au     16.62586     11.02116     11.61815         0.001383     -0.006267      0.027968
