75
# total energy = -211.37481484 eVAu      8.68015      8.97215      5.93075         0.003466     -0.016675     -0.024234
Au      6.35379      8.10994      9.70205        -0.006560      0.012081      0.023026
Au      9.36805      8.26925      8.78529         0.009748      0.010958     -0.005341
Au      7.52773      6.66581      7.50095         0.013322     -0.007981     -0.002031
Au      6.05137      8.97701      7.03996         0.001927      0.015321      0.009825
Au      9.50973      6.26144      5.61138         0.006719      0.002317      0.003412
Au     16.74728      7.42882      8.37228         0.003030     -0.003104      0.002437
Au     10.99042      8.74346      4.24910         0.000327      0.014015      0.002430
Au      9.98523      5.24987      8.23738         0.016764      0.004370     -0.001543
Au     16.47937     10.22932      8.85143         0.000337      0.003760     -0.000140
Au     11.50896      7.80781      6.87404        -0.023798      0.018090      0.016747
Au     12.04976      4.99085      6.36567        -0.006534      0.007193     -0.000648
Au     15.41757      5.13740      9.62129        -0.007351      0.001390      0.002639
Au     11.68021      6.07240      3.87263        -0.010130      0.003417     -0.008464
Au     14.17282      6.57773      7.49080         0.008280      0.001660      0.006619
Au     11.98128      7.12537      9.57128        -0.000065     -0.006355     -0.007850
Au     13.63494      7.69735      4.92316        -0.001432     -0.003950     -0.006757
Au     12.74151      4.48634      8.96912        -0.003074     -0.000381     -0.000728
Au     15.42341      9.04998      6.50137        -0.002432     -0.000777     -0.011571
Au     13.30597      9.38802      8.34135        -0.014416      0.004271     -0.003427
Au      4.27168     13.14351      8.75089         0.012490     -0.000880      0.010127
Au      6.79234     13.57346      7.55624         0.017632      0.011365     -0.012974
Au      7.62732     11.58757      5.62591         0.013199      0.014067      0.006799
Au      5.08227     11.52864      6.67230         0.006804     -0.003157      0.019177
Au      7.84311     10.75921      8.31921        -0.002508      0.000131      0.009182
Au      4.87810     10.43796      9.24497        -0.003849     -0.029898     -0.006070
Au      8.64121     14.89266      9.18377         0.008757     -0.005502     -0.027877
Au      9.47814     13.33762      6.86571         0.001992      0.000891     -0.001337
Au     10.32042     11.33273      4.97465         0.019558     -0.005370     -0.003822
Au     12.22790     12.87937      6.43863         0.002908     -0.013484      0.013292
Au     14.75184     11.72966      7.18188        -0.005133      0.001079      0.001029
Au     11.35195     14.55870      8.58006         0.000616      0.004847     -0.000063
Au     10.69481     10.51643      7.57863         0.010502     -0.013693      0.014143
Au     12.63927     12.12000      9.08054         0.012758     -0.016634      0.009465
Au      9.77223     12.29349      9.73210        -0.019337     -0.000652      0.009785
Au     13.00625     10.37761      5.42775        -0.012918     -0.001725      0.003895
Au      7.56052      9.90884     14.02568         0.000045      0.001571     -0.001656
Au      8.03936      5.88191     10.15670         0.007972     -0.003611      0.008048
Au      8.70069      5.35078     12.83226        -0.002102     -0.005933      0.001738
Au      8.37189      9.98351     11.00399        -0.009572      0.011699     -0.001417
Au      9.22855      7.61597     14.40443         0.009937     -0.000076      0.007970
Au      7.13841      7.62612     12.37695        -0.002699      0.007277     -0.008590
Au     11.20732      9.83952     10.28676        -0.002474      0.011975     -0.005148
Au     17.32283      8.42498     10.93798         0.002507     -0.009961     -0.010961
Au     14.65546      7.77282     10.22458        -0.023735      0.010977      0.008140
Au     14.01613      6.62326     14.05947        -0.003251      0.013621     -0.012419
Au     13.43011      5.09829     11.66840         0.002162     -0.000289     -0.003559
Au     16.01841      6.20769     12.16513        -0.007970     -0.006420     -0.010266
Au     10.72084      4.78600     10.92821        -0.008765     -0.004037     -0.008429
Au     15.37792      8.89256     13.02427        -0.018849      0.003108      0.009378
Au     11.95243      8.30044     15.01256         0.003109      0.006520     -0.007409
Au     12.65658      8.20114     12.20077        -0.009204     -0.008153      0.016503
Au     10.47898      9.94953     13.06630        -0.006558     -0.001981      0.007135
Au     11.38289      5.85770     13.50081         0.007743     -0.000657      0.005134
Au      9.92623      7.57456     11.54363         0.002563      0.000999      0.013947
Au      9.83180     10.00230     15.77241         0.003374     -0.003802     -0.008682
Au      6.22795     12.30019     13.41361        -0.012644     -0.002138     -0.002511
Au      8.98457     12.37138     12.49826         0.004291     -0.012027      0.001058
Au      5.94912     14.96335      9.96434         0.001720      0.014176     -0.007809
Au      4.37494     12.33756     11.38549        -0.006854     -0.006033      0.002998
Au      5.65471      9.91463     11.87202         0.013356     -0.030271     -0.007202
Au      8.34433     12.36727     15.24902         0.005944     -0.005355     -0.008858
Au      7.00851     12.44369     10.46172         0.006452     -0.010994      0.000325
Au      7.84923     14.97338     11.95291        -0.017606      0.015892     -0.005877
Au     12.45669     14.37455     13.39055         0.004680     -0.004763     -0.014429
Au     13.27065     14.38394     10.65101         0.002061     -0.003535      0.003829
Au     14.59340     12.72559     12.59168         0.002069      0.007550     -0.000294
Au     13.95920     10.40872     10.99062         0.001480      0.018520     -0.007063
Au     13.32969     10.59110     14.00121         0.004329     -0.004108      0.011476
Au      9.69650     14.61933     14.02936        -0.001043     -0.005675     -0.000946
Au     10.56998     14.95682     11.30246         0.014156     -0.000637     -0.004849
Au     11.16646     12.25897     14.73008        -0.001742     -0.006516      0.007848
Au     15.35185     12.69043      9.74837        -0.000009     -0.003363      0.004604
Au     11.79239     12.14722     11.85906        -0.000633      0.013213     -0.000266
Au     16.61833     11.01754     11.63047        -0.015839      0.002233     -0.010650
