75
# total energy = -211.38585248 eVAu      8.68095      8.96578      5.92150         0.016953      0.010623      0.002215
Au      6.35179      8.07566      9.72074        -0.008909      0.012777     -0.006783
Au      9.35794      8.27745      8.78820        -0.008019      0.009704     -0.002252
Au      7.53572      6.64090      7.52130        -0.012838      0.003883     -0.010793
Au      6.06682      8.95144      7.05811        -0.006900     -0.000401      0.008504
Au      9.50017      6.25024      5.62322         0.015692      0.009629     -0.026300
Au     16.73386      7.43093      8.37488         0.006951     -0.006629     -0.019140
Au     10.99546      8.76127      4.24015        -0.012609     -0.006953      0.001038
Au      9.99061      5.23735      8.24153         0.009203      0.001251      0.002820
Au     16.47377     10.22688      8.84634         0.003731      0.007722      0.000588
Au     11.48807      7.82427      6.87570        -0.012928     -0.005926     -0.018220
Au     12.04536      5.00791      6.36167         0.008819      0.005518     -0.028838
Au     15.41026      5.15310      9.62051        -0.005340     -0.017153     -0.011893
Au     11.65007      6.08424      3.86323         0.007962     -0.005116      0.009461
Au     14.15982      6.59201      7.49337        -0.000642     -0.006368      0.001605
Au     11.96758      7.13120      9.57111         0.010125      0.002093     -0.000071
Au     13.61810      7.69106      4.92074         0.000380     -0.011334     -0.000335
Au     12.74074      4.49248      8.96380        -0.009850      0.007432      0.016469
Au     15.41071      9.04800      6.49531         0.009530     -0.004885     -0.001477
Au     13.29229      9.39256      8.33859        -0.000684      0.005294      0.022261
Au      4.34663     13.12739      8.79596        -0.000660      0.004707     -0.012674
Au      6.82817     13.59899      7.53288        -0.000078      0.007899      0.006711
Au      7.67007     11.60354      5.62395         0.009170     -0.008324     -0.010395
Au      5.13999     11.51929      6.70588        -0.006886     -0.006192     -0.000227
Au      7.83410     10.76490      8.31512        -0.021631      0.012614      0.018209
Au      4.86941     10.39681      9.25563         0.005736     -0.010559      0.007163
Au      8.67574     14.91977      9.15326         0.002358      0.014086      0.001276
Au      9.51396     13.35881      6.84865        -0.002977      0.007499      0.007846
Au     10.35715     11.34987      4.96686        -0.016115     -0.014481      0.017592
Au     12.25530     12.88040      6.44881         0.002180      0.009707     -0.031326
Au     14.75405     11.72859      7.18228         0.011604     -0.001118      0.017131
Au     11.38137     14.56835      8.57526        -0.012364      0.012430     -0.008350
Au     10.68703     10.52744      7.58230        -0.021198      0.004174     -0.022855
Au     12.63191     12.11956      9.08849         0.017412     -0.010057      0.007946
Au      9.74426     12.30805      9.72497         0.010957     -0.002326      0.007802
Au     13.01732     10.38040      5.41759         0.008729     -0.006339      0.004722
Au      7.54834      9.88410     14.04024         0.024751     -0.003173      0.006051
Au      8.05092      5.86191     10.16958        -0.004734     -0.014487      0.008582
Au      8.70763      5.33582     12.84496        -0.007104     -0.009621      0.009958
Au      8.35095      9.98799     10.99743        -0.005818      0.007362      0.001267
Au      9.23112      7.60359     14.41283         0.011201      0.010773      0.006569
Au      7.14212      7.60300     12.38996        -0.009122     -0.010578      0.007158
Au     11.18891      9.85268     10.28901        -0.009702     -0.001164      0.001888
Au     17.31505      8.41761     10.93368         0.019555      0.003571      0.005341
Au     14.63999      7.78792     10.23412        -0.027108     -0.001671     -0.012772
Au     14.01387      6.63714     14.05088        -0.006446     -0.010402     -0.001857
Au     13.42625      5.10053     11.66723         0.004005     -0.005185     -0.011839
Au     16.01501      6.20961     12.15900        -0.005664     -0.003091      0.017300
Au     10.71842      4.78550     10.93209         0.023769     -0.014107     -0.019192
Au     15.36740      8.89583     13.02164         0.000536     -0.004428      0.005146
Au     11.95089      8.30814     15.00731         0.001789     -0.004550      0.002110
Au     12.63461      8.21294     12.20221         0.010619     -0.011086      0.002011
Au     10.45497      9.95843     13.06447         0.002211     -0.002541     -0.003592
Au     11.38548      5.85346     13.50080         0.015339      0.009955      0.018402
Au      9.91440      7.57488     11.54745         0.011078      0.024112      0.004829
Au      9.83173      9.99385     15.77320        -0.005671      0.011953      0.000457
Au      6.21091     12.25995     13.42479        -0.017344     -0.001966     -0.006116
Au      8.95510     12.37400     12.48148         0.000219     -0.008029     -0.003454
Au      5.99343     15.01589      9.92957         0.009989      0.014213     -0.018150
Au      4.34731     12.27751     11.41002        -0.011898     -0.025764      0.022141
Au      5.64747      9.86999     11.88518        -0.014369      0.003739     -0.011169
Au      8.34894     12.35370     15.23302         0.002448     -0.004444      0.008507
Au      6.97360     12.45784     10.46069        -0.008467      0.000483     -0.008526
Au      7.87169     15.00030     11.92898        -0.007952      0.006094     -0.014499
Au     12.45985     14.37093     13.38840         0.004135      0.013485     -0.000645
Au     13.28206     14.38812     10.64635         0.003400     -0.000066      0.035305
Au     14.59267     12.72835     12.59252         0.000425     -0.001434     -0.010298
Au     13.94049     10.42206     10.99518         0.001317     -0.005549     -0.005235
Au     13.33176     10.59559     14.00389         0.000635     -0.001177      0.001801
Au      9.69787     14.60021     14.01289         0.005334      0.013121      0.010616
Au     10.58475     14.97360     11.29143         0.030125     -0.010854     -0.001053
Au     11.17400     12.24976     14.73220        -0.031594      0.015775      0.006186
Au     15.35352     12.69293      9.74598        -0.002267     -0.019061     -0.000396
Au     11.77018     12.16383     11.85589        -0.009930     -0.014590      0.002220
Au     16.60404     11.00621     11.62356         0.005446      0.029500     -0.004484
