75
# total energy = -211.31445194 eVAu     14.96460     16.99233      9.23135         0.025381      0.015458     -0.016363
Au     16.05027     15.07608     14.44889        -0.003184     -0.012493     -0.030182
Au     11.61726     19.12284     12.06098         0.010926      0.008830      0.045225
Au     21.11459     12.37666     11.74299        -0.001405     -0.032697     -0.019552
Au     17.40892     15.64074      9.64904         0.002729      0.004292     -0.030409
Au     17.04801     18.29489     10.62909        -0.054879      0.019597      0.041855
Au     22.11155     12.97003     14.30888        -0.015950      0.030466      0.032667
Au     13.44404     14.77917     10.16380         0.032359     -0.016134      0.027346
Au     15.14937     10.06501     14.31039         0.003775     -0.003975      0.004101
Au     19.32101     12.75691     13.93220        -0.005320     -0.028433     -0.040194
Au     12.25697     17.37274      9.98783         0.014579      0.034068      0.018446
Au     19.04162     19.40454     12.30571         0.021221      0.017961     -0.019439
Au     15.88482     13.36431     10.45322         0.006910      0.005811      0.042090
Au     16.93019      9.93414     12.17430        -0.005269     -0.003210     -0.027823
Au     11.03686     13.95398     13.71840        -0.032433     -0.019490     -0.005253
Au     18.34668     12.03407     10.96632        -0.001599      0.015943     -0.005711
Au      9.92705     16.55941     13.48005         0.005397     -0.009264      0.012305
Au      9.87075     19.64577     14.07871        -0.031731     -0.102924     -0.065496
Au     13.97322     13.90394     12.85714         0.012838     -0.025631      0.006577
Au     12.57623     11.44762     13.82660        -0.038888      0.065784      0.045586
Au     19.64792     10.18350     12.74995         0.022757      0.008578     -0.033355
Au     12.69341     16.49991     12.65299         0.004048     -0.008142      0.010923
Au     16.53752     12.45489     13.28281        -0.023914     -0.002357     -0.015678
Au     16.36779     19.94937     12.91999        -0.009951     -0.019847      0.031772
Au     19.83349     14.30896     10.23172        -0.019423     -0.012747     -0.043555
Au     13.67558     20.28287     13.66178         0.039010     -0.046705     -0.015975
Au     12.00808     12.65201     11.34712        -0.015481     -0.023583      0.003659
Au     15.43652     16.08641     11.80894         0.011971      0.000006      0.028308
Au     10.72704     15.19699     11.15923         0.003155     -0.017728      0.027961
Au     17.51988     17.28881     13.33819        -0.031375      0.032812     -0.000861
Au     21.21190     15.07825     12.65367        -0.040612     -0.013845      0.058349
Au     14.45772     11.24265     11.70275        -0.015466     -0.031699     -0.032351
Au     14.77302     17.66778     14.17887        -0.064369      0.044670     -0.005870
Au     20.50636     17.52520     13.85045        -0.019040     -0.003494      0.022316
Au     17.96702     14.64371     12.28821         0.011238      0.006388     -0.048571
Au     19.56671     16.89669     11.19536         0.018895     -0.011651      0.009757
Au     14.29781     18.92719     11.23257         0.002002      0.018795      0.018517
Au     12.35712     19.48179     18.83243         0.014389     -0.000914     -0.007352
Au     12.42900     14.83893     18.17490         0.005181     -0.013562     -0.000521
Au     17.73525     19.22434     17.76857         0.059602     -0.014288     -0.013995
Au     13.95743     17.54406     16.90759         0.015622      0.029876      0.057818
Au      9.15524     17.60892     15.89685         0.007400     -0.073591      0.014271
Au     18.47633     19.41673     15.02843         0.002505      0.005345      0.039895
Au     19.01592     17.21960     19.28261         0.023467      0.012843      0.024080
Au     19.52814     13.24839     19.22757         0.002012     -0.023878     -0.044504
Au     21.65916     15.47431     15.47610        -0.023134     -0.051914      0.020180
Au     20.62268     10.69103     15.33368        -0.015185      0.026802      0.021871
Au     18.86794     11.16021     17.47378         0.037679      0.037031     -0.041858
Au     18.90578     15.31168     14.93570        -0.038167     -0.005409      0.028612
Au     18.17398     15.14388     17.61335         0.024982     -0.019181     -0.008400
Au     21.02654     12.99898     16.87684         0.037827     -0.000565      0.066300
Au     16.09011     10.65856     16.97711        -0.003033      0.026370      0.039479
Au     20.95293     15.47551     18.17766        -0.003566     -0.021542     -0.042125
Au     10.38537     15.18967     16.16662         0.030059      0.007488     -0.052754
Au     17.56286     14.96359     20.33326         0.019060     -0.009420      0.032812
Au     15.07736     19.66657     18.41118        -0.042072     -0.020099     -0.014157
Au     10.53345     19.82264     16.80403         0.022583      0.001356     -0.029153
Au     10.94924     17.20857     18.03131         0.070106      0.018967     -0.019468
Au     17.42162     13.03626     15.96358         0.002871      0.050079     -0.023091
Au     17.91105     10.01080     14.95118         0.004849      0.053981      0.039526
Au     15.82652     20.05081     15.69445         0.043877      0.036588     -0.015760
Au     15.34611     14.96837     17.17807        -0.048614      0.008654     -0.011857
Au     16.17335     17.22920     19.31615        -0.029595     -0.030497     -0.048438
Au     13.36700     17.04066     19.63418        -0.003042      0.006676     -0.053053
Au     12.01616     18.13218     14.91834         0.050783      0.026956     -0.017769
Au     13.33490     10.48179     16.38452        -0.026602     -0.014871      0.038600
Au     13.15081     15.42015     15.26510        -0.058180      0.004286     -0.004784
Au     14.02522     12.48757     18.21948         0.015699      0.003401      0.014938
Au     16.76910     12.70504     18.83783        -0.023052     -0.037236      0.032841
Au     11.83968     12.83532     16.27048        -0.012177      0.046793     -0.079619
Au     14.59071     12.80554     15.40106        -0.001458      0.039623     -0.001885
Au     14.80892     14.65461     19.85894         0.029187      0.007346      0.026558
Au     16.82982     17.18115     16.17077        -0.026306      0.039431     -0.017000
Au     19.88502     17.56600     16.62366         0.029734      0.019271     -0.003790
Au     13.18538     20.48342     16.34919        -0.014198     -0.055607      0.022426
