75
# total energy = -211.19483787 eVAu      7.94887     10.07184      4.24950        -0.005779      0.000563      0.007815
Au      5.18809      8.36476      8.30314        -0.027027     -0.036357     -0.001858
Au      7.69508      9.27953      8.97054        -0.026305      0.002829      0.015073
Au      7.26772      6.44360      8.09363         0.025152      0.011197     -0.006123
Au      8.58003      8.35956      6.38204        -0.029543     -0.001734      0.018290
Au      6.51234     10.47980      6.65761        -0.005156      0.007555      0.003450
Au     13.98936      6.63070      6.03226        -0.018634      0.016274     -0.006818
Au     12.66868      8.86341      4.94178         0.029911      0.008423     -0.024564
Au     15.71607      6.99833      8.28341        -0.025650     -0.003213      0.008702
Au     12.84116      7.36511      8.47754         0.011058     -0.006492      0.009972
Au     10.09198      8.36750      3.99266         0.001458      0.002866      0.016874
Au     12.41734      4.73553      7.52030         0.004641     -0.011893     -0.000245
Au     13.12464      9.87305      9.64579        -0.006631     -0.005543      0.004136
Au     11.03528      6.76277      6.08469        -0.017075      0.014471      0.004808
Au     14.17880      5.13374      9.69771        -0.003580     -0.006045     -0.018474
Au      9.97859      7.44493      8.73057        -0.002740     -0.002702     -0.017659
Au     14.60314      9.28588      6.99445        -0.000183     -0.002025     -0.000797
Au     15.91250      9.47979      9.53712         0.022856      0.002428     -0.014460
Au      9.62050      4.87823      7.77821         0.005110     -0.001616      0.011721
Au     11.29295      9.51250      7.30349        -0.018655     -0.030179     -0.016983
Au      3.99775     13.72174      8.54803         0.025576     -0.015347     -0.000136
Au      6.03431     13.33351      6.73834         0.034814     -0.009413     -0.048553
Au      8.22096     12.62492      5.25687         0.006983      0.060183     -0.011321
Au      4.27667     10.96652      8.47334        -0.002343     -0.055277      0.001982
Au      6.36443     15.04687      8.99312         0.012097     -0.004014      0.011654
Au      6.76703     12.08921      9.19873         0.004480      0.002775     -0.025533
Au      8.56736     14.48325      7.42551         0.019523      0.020105     -0.020246
Au     10.55923     10.99429      4.77451         0.011140     -0.010736     -0.015581
Au     13.53437     13.92018      9.94494        -0.014771     -0.018777      0.006128
Au     10.80870     13.45084      6.06948         0.026495     -0.007666     -0.018773
Au     13.36664     13.99483      7.14883         0.022612      0.020373     -0.006268
Au     11.10749     14.95495      8.54159         0.013241      0.008110      0.009650
Au      9.09855     11.34703      7.57467        -0.018567     -0.000465     -0.033118
Au     11.70916     12.12660      8.45542        -0.032512     -0.005986     -0.005131
Au     14.74890     11.79372      8.26349        -0.013302     -0.008229      0.011533
Au     13.06463     11.47078      5.93855        -0.017352     -0.001009     -0.008733
Au      6.54559      8.63005     13.02828         0.006117      0.016563      0.025162
Au      8.57024      5.25228     10.34771        -0.000369      0.021427     -0.000685
Au      5.09215      9.70118     10.85220        -0.007959     -0.008839      0.000625
Au      7.51935      6.01767     12.83341        -0.008548     -0.021990      0.000563
Au      9.10641      7.84784     14.26351        -0.001869      0.021958     -0.011750
Au      6.16302      7.06433     10.60163         0.002998     -0.003731     -0.008422
Au      8.82734      8.01475     11.30778        -0.013753      0.003042     -0.019734
Au     10.27042     10.08472      9.90197        -0.007977     -0.001701     -0.012814
Au     14.75993      7.48770     13.65716        -0.007635     -0.001795      0.010532
Au     15.69203      7.00908     11.07812        -0.075313      0.046033      0.007290
Au     13.21138      5.72354     12.21225         0.002848     -0.008755     -0.011136
Au     13.33287      9.67774     12.44242         0.003283      0.006684     -0.024810
Au     16.19906      9.47647     12.28901         0.017308      0.022007      0.003597
Au     10.32683      5.73901     12.58410         0.018411      0.011957     -0.006915
Au     13.54857      9.48733     15.25033         0.000873      0.015402      0.013402
Au     11.74037      7.80769     11.01707        -0.024901      0.004147      0.044438
Au     11.40251      4.93656     10.12673        -0.007386     -0.004066     -0.017693
Au     10.50108      9.92455     12.71779         0.008146     -0.005529      0.009777
Au     11.92315      7.54650     14.04029         0.009123      0.017729      0.029525
Au     10.74557      9.83466     15.47662         0.003897     -0.010711      0.001175
Au      7.35122     13.34802     14.39360        -0.002867     -0.021476     -0.011969
Au      8.94617     15.37653     12.91118         0.005816     -0.002772     -0.019394
Au      4.90291     13.92251     13.25166        -0.009250      0.002720     -0.021338
Au      8.83305     15.62973     10.08609         0.011663      0.019346     -0.005711
Au      5.71219     11.27780     13.14448        -0.016362     -0.023249      0.018009
Au      8.11318     10.51742     14.47560         0.019243      0.020315      0.013745
Au      4.40244     12.43919     10.94514         0.004310     -0.013064      0.032368
Au      7.92218     10.77903     11.43256        -0.006577      0.005769      0.008731
Au      7.04154     13.80071     11.49252        -0.009448     -0.008149      0.011346
Au     11.30167     14.50584     14.17530         0.015661     -0.024081     -0.008245
Au      9.60165     12.63003     12.80707         0.003686     -0.014182     -0.019903
Au     12.42135     12.02868     14.82337         0.046681      0.026886      0.079344
Au     15.01013     11.77091     11.07743        -0.013298      0.019572      0.015552
Au     15.00146     11.51982     13.87287         0.009887      0.005954      0.017833
Au     11.30105     14.91131     11.38355         0.019989     -0.006682      0.030142
Au      9.75932     12.52887     15.57456         0.017948     -0.037443      0.012934
Au      9.39014     12.86741     10.01934        -0.019215      0.009126     -0.024944
Au     11.92316     11.93666     11.33186         0.000985     -0.013155      0.011252
Au     13.57864     13.68351     12.75988         0.012511      0.001300     -0.012294
