75
# total energy = -211.52928934 eVAu      8.29640      8.92055      4.83218        -0.004304     -0.003235      0.010149
Au      5.54218      8.26629      8.80047        -0.011816      0.001439     -0.010837
Au      8.77527      7.60587      9.88629        -0.007043     -0.007784      0.001638
Au      6.80084      5.75309      9.40140         0.015870      0.000734     -0.001882
Au      7.39210      7.20682      6.99331         0.001722      0.002805     -0.001877
Au      6.55232      9.95632      6.69066        -0.017773      0.010022      0.005774
Au     15.01984      8.54887      7.69793        -0.004866      0.001668      0.000960
Au     11.04119      9.71276      5.27300        -0.011401      0.009367     -0.014471
Au     15.93127      6.71390      9.61123        -0.017761      0.003893      0.005220
Au     13.35257      8.14039      9.96881         0.016597     -0.006586     -0.001718
Au     10.03648      7.03505      5.72281        -0.006116     -0.001166      0.001220
Au     11.66940      4.33543      9.06533         0.005142      0.012033     -0.016862
Au     11.79178      5.08144      6.42352         0.010335      0.005092      0.009262
Au     13.90748      5.85669      7.98523        -0.000666     -0.005803     -0.006970
Au     11.23497      7.26345      8.36569        -0.003389     -0.002383      0.001702
Au     12.87532      7.71929      6.03550         0.007370     -0.002987      0.000741
Au      9.31018      9.27685      7.57315         0.000499     -0.002980      0.005773
Au      9.21877      5.27948      7.86587        -0.006666     -0.002815      0.003992
Au      5.11033     13.86465      9.23115         0.005933      0.001573     -0.009553
Au      6.72999     12.74267      7.17947         0.001321     -0.017554      0.012404
Au      4.80733     11.07212      8.47661         0.014591     -0.002199     -0.012674
Au      7.49761     10.45192      9.41637        -0.011879      0.000202      0.004813
Au      7.33280     15.27522      8.24828        -0.002319     -0.001389     -0.000703
Au      7.79551     13.24928     10.18306         0.002770     -0.011913      0.003518
Au      8.78932     11.50836      5.64690        -0.010024      0.006768     -0.003381
Au     11.49613     12.33814      6.26961         0.022964      0.006799      0.003868
Au     12.40542     13.05063      8.89794        -0.000540     -0.001904      0.001150
Au     10.11628     14.82602      9.07612        -0.002312      0.008515     -0.002269
Au      9.68960     12.01852      8.42309        -0.004364      0.005181      0.009038
Au     14.53828     11.15241      8.79785        -0.002647     -0.011498      0.004588
Au     11.96157     10.06806      8.26629        -0.004266      0.003788     -0.002095
Au     13.63661     10.48117      6.14968         0.006708     -0.019015     -0.008020
Au      9.21759     14.07320      6.53969        -0.001443     -0.001058      0.002497
Au      7.24861      9.87763     14.67096        -0.005153      0.007900      0.014040
Au      3.90375      9.48950     10.75267        -0.000852     -0.007842      0.002978
Au      4.91678      6.92023     11.20212         0.001942      0.002094     -0.003013
Au      6.79219      8.93910     11.65682         0.019698      0.010023     -0.008755
Au      8.36898      7.23289     14.79516         0.013411     -0.001963     -0.007645
Au      5.69635      7.65592     13.88191         0.003044      0.002876     -0.000414
Au      7.43688      6.07279     12.25608        -0.018723      0.010536      0.002541
Au     10.17498      9.94754     10.39783        -0.008183     -0.004403      0.002587
Au      9.14412      4.58750     10.57131         0.004458      0.003745      0.003652
Au     14.21821      7.37145     14.76841         0.004914     -0.000046     -0.014634
Au     15.85866      9.34166     10.58598        -0.004651      0.000656      0.001556
Au     13.93525      4.96025     10.67304         0.010677     -0.003547     -0.002803
Au     12.89091      5.49038     13.26840         0.011794      0.017792      0.005686
Au     12.46777      8.42757     12.60743        -0.004438     -0.000615      0.002937
Au     15.13492      7.01693     12.20923         0.004308     -0.001177      0.007271
Au      9.94471      5.34321     13.32404         0.000292      0.000612     -0.006318
Au     14.97479      9.70156     13.25818         0.006059     -0.005333     -0.002460
Au     12.80016      9.64344     15.23136        -0.005159     -0.000751      0.003554
Au     11.26908      6.47500     11.03196         0.001246      0.003819     -0.002089
Au     11.58101      3.65166     11.71643        -0.007210      0.007913      0.000559
Au      9.55636      8.34435     12.57699        -0.004458     -0.005014      0.008046
Au     11.26938      7.21518     14.92001        -0.007200     -0.003567      0.002050
Au      9.88028      9.55555     15.55584         0.002831      0.003071     -0.001821
Au      6.39672     12.57391     13.94637         0.027982      0.000835      0.004823
Au      8.30952     11.21873     12.21069        -0.011309      0.000283      0.002859
Au      3.09395     12.20036     10.32108         0.001766     -0.004632     -0.003176
Au      5.89498     14.60466     11.92692         0.009803      0.005619      0.002987
Au      8.46216     14.37626     13.13246        -0.006168     -0.024910     -0.000244
Au      3.85456     12.91863     12.93541         0.001550     -0.001765      0.000989
Au      4.70161     10.24372     13.50019        -0.000437     -0.009957      0.001421
Au      5.69226     11.68506     11.22305         0.015381      0.006280     -0.008440
Au      8.09264     15.99161     10.85859        -0.001789     -0.000763      0.001466
Au     11.15905     13.74361     13.79491        -0.007895      0.009040      0.004715
Au     13.04539     13.79888     11.59448         0.015715      0.000314     -0.017103
Au     11.50026     11.94417     15.85687        -0.008471     -0.005972     -0.002550
Au     12.75448     10.81436     10.98900        -0.006974      0.003677      0.002494
Au     10.72527     15.49396     11.72043        -0.002316      0.000422     -0.000907
Au     10.94386     10.81989     13.19412        -0.001187     -0.008388     -0.004500
Au     15.18901     11.94579     11.48719         0.012838     -0.011912      0.009331
Au      8.93719     12.20687     14.89318        -0.025351      0.010272     -0.002103
Au     10.46564     12.75040     11.09056        -0.008615      0.000749     -0.005894
Au     13.51575     12.04828     13.78684        -0.003404      0.016418      0.011333
