75
# total energy = -211.22498405 eVAu      7.94252     10.08403      4.25903         0.022939      0.044127      0.042107
Au      5.17524      8.32876      8.29662        -0.013380     -0.024856      0.032553
Au      7.66370      9.28424      8.97477        -0.021499      0.016400      0.002787
Au      7.26951      6.43616      8.08755         0.011899     -0.008877     -0.001369
Au      8.57490      8.37707      6.39674        -0.064775      0.007672     -0.019726
Au      6.49919     10.49807      6.66339         0.004078     -0.034417     -0.031778
Au     13.98747      6.63037      6.02462        -0.023334      0.012482      0.000593
Au     12.66341      8.86362      4.94783         0.007948      0.021919     -0.042488
Au     15.70958      6.99333      8.27601        -0.013431      0.006062      0.023336
Au     12.83490      7.34995      8.47920        -0.038579      0.031700      0.036333
Au     10.07912      8.36580      4.01146         0.014013      0.024432      0.004176
Au     12.43216      4.72151      7.51059        -0.015731      0.001157     -0.002795
Au     13.10112      9.86552      9.63494         0.004342     -0.002694      0.006026
Au     11.03115      6.76320      6.09695         0.005319      0.010160     -0.016395
Au     14.18844      5.12633      9.69139        -0.006407     -0.013312      0.011886
Au      9.96235      7.45356      8.72613         0.020934     -0.024138      0.039384
Au     14.57576      9.28451      7.00868         0.024439     -0.011134     -0.004540
Au     15.90063      9.46572      9.54817        -0.008690      0.038293      0.002476
Au      9.62942      4.87715      7.77655        -0.002504     -0.007361      0.015319
Au     11.26788      9.51373      7.29784         0.030074     -0.004435     -0.025428
Au      4.02360     13.69900      8.55702         0.077512     -0.070396     -0.026612
Au      6.05930     13.34612      6.71436        -0.019314      0.045335      0.012922
Au      8.24283     12.65628      5.23616         0.069637     -0.002183     -0.039565
Au      4.27012     10.92764      8.48080        -0.017787      0.006903      0.038203
Au      6.37911     15.05161      8.97950         0.046192     -0.020747     -0.015172
Au      6.74934     12.09621      9.18210        -0.022108      0.006225      0.005480
Au      8.59442     14.50264      7.40858         0.026077      0.024060     -0.003826
Au     10.57058     11.00028      4.75126        -0.023300      0.011440     -0.002170
Au     13.53901     13.90275      9.95199        -0.039603      0.001684     -0.017560
Au     10.83986     13.46195      6.04402         0.004348      0.006071      0.013372
Au     13.39826     14.00329      7.15242        -0.050618     -0.038423      0.013311
Au     11.13164     14.96386      8.54011        -0.001506     -0.018274      0.007517
Au      9.08008     11.36189      7.56077        -0.010980     -0.022711     -0.036353
Au     11.69087     12.13331      8.43836        -0.001260      0.015504     -0.021800
Au     14.74075     11.78411      8.27747        -0.014727      0.008831     -0.006322
Au     13.06578     11.47873      5.93379        -0.011595      0.001163      0.015847
Au      6.54868      8.62596     13.05056         0.016832     -0.029093     -0.015501
Au      8.57837      5.26227     10.34709        -0.025308     -0.003027      0.032895
Au      5.09271      9.67686     10.85965        -0.009384     -0.010938      0.013953
Au      7.52854      6.00539     12.85241        -0.000543      0.033350     -0.044314
Au      9.11849      7.86450     14.26453        -0.027411     -0.025078     -0.032602
Au      6.16558      7.04282     10.60418        -0.016148     -0.004046      0.012118
Au      8.80002      8.01209     11.30018         0.016245      0.049624      0.015226
Au     10.24001     10.09447      9.88867        -0.011138     -0.019972     -0.002920
Au     14.76971      7.48643     13.66702        -0.032255      0.029945     -0.002599
Au     15.67945      7.02008     11.08038        -0.061542      0.014359     -0.011388
Au     13.22137      5.73482     12.20400        -0.014849      0.017869     -0.009382
Au     13.32989      9.68874     12.43495         0.035316     -0.012761      0.021510
Au     16.21129      9.47899     12.30435        -0.020656      0.013081     -0.022693
Au     10.33854      5.76070     12.59018         0.002664     -0.015747     -0.032050
Au     13.56455      9.49279     15.25468         0.014258      0.031591      0.002608
Au     11.71798      7.82022     11.02680         0.005754     -0.000458     -0.020595
Au     11.40660      4.97623     10.11110         0.015439     -0.031294      0.014013
Au     10.48570      9.92501     12.70355         0.011422      0.002918      0.010257
Au     11.93543      7.56995     14.03855         0.022868     -0.017468      0.023344
Au     10.77105      9.84840     15.46431         0.011092     -0.003839      0.012167
Au      7.34884     13.33299     14.38885         0.012408     -0.013610     -0.017358
Au      8.94167     15.37076     12.90055         0.021328     -0.019309     -0.012870
Au      4.90857     13.92607     13.22820        -0.000073     -0.026477      0.023298
Au      8.84600     15.63825     10.07691         0.023626     -0.006160     -0.006668
Au      5.69956     11.26061     13.16312        -0.022767      0.009167      0.011052
Au      8.12105     10.51891     14.48642        -0.014755      0.018144     -0.011442
Au      4.39064     12.41094     10.95885         0.009843     -0.041373     -0.021116
Au      7.89922     10.78473     11.43080         0.010682     -0.000137      0.005718
Au      7.04191     13.78937     11.47809         0.000233      0.012405      0.006849
Au     11.30210     14.49607     14.18107        -0.003829     -0.053158     -0.004741
Au      9.59797     12.62725     12.80008         0.005713     -0.004415     -0.011478
Au     12.46745     12.06081     14.91491         0.044416      0.021566      0.059086
Au     15.00260     11.76072     11.09041         0.012290     -0.016004      0.012383
Au     15.01633     11.51370     13.89115        -0.016766      0.004089      0.009833
Au     11.30687     14.89177     11.39293        -0.006149      0.003829     -0.014395
Au      9.77113     12.51368     15.57416         0.026423      0.021660     -0.011628
Au      9.37305     12.87234     10.00648         0.009351      0.017921     -0.020237
Au     11.90768     11.92901     11.31227         0.002033     -0.001485      0.018399
Au     13.57002     13.65042     12.76873         0.004712      0.016669      0.011542
