75
# total energy = -205.89942910 eVAu      7.98872      9.98956      4.33506        -0.821418     -0.130716     -1.123718
Au      5.33612      8.48416      8.23320        -0.761726     -0.472732     -0.464774
Au      7.77102      9.25026      9.05302         0.708046      0.543690     -0.120604
Au      7.44332      6.65606      8.03446        -0.681334     -0.743935     -0.781594
Au      8.82014      8.58624      6.49072        -0.408928     -0.610250      0.277633
Au      6.64812     10.42780      6.68704        -0.420168     -0.343613     -0.485046
Au     13.85138      6.75022      6.14524         0.719794     -0.490144     -1.030692
Au     12.60680      8.88468      4.93542         0.640974      0.157436     -0.735497
Au     15.49136      7.13088      8.31522         1.254359     -0.419550     -0.170533
Au     12.77720      7.32118      8.57814        -0.533172      0.651869      0.372192
Au     10.09664      8.29980      4.11996        -0.111254     -0.686539     -1.137545
Au     12.42298      4.82494      7.52920         0.238945     -1.186873     -0.449388
Au     13.19826      9.88646      9.64854        -0.828892     -0.290370      0.307600
Au     11.08754      6.85876      6.22864        -0.460917     -0.421645     -0.559611
Au     14.06656      5.19052      9.70286         0.677723     -0.949944      0.232106
Au      9.98786      7.45490      8.82352         0.436030      0.770894     -0.073323
Au     14.32652      9.31292      7.11420         0.933404      0.416162     -0.680633
Au     15.89748      9.64654      9.45440         0.885132      0.189593     -0.261825
Au      9.70372      4.99388      7.78880        -0.624202     -0.744529     -0.510085
Au     11.44182      9.47178      7.31708        -0.256842     -0.098407      0.886212
Au      3.91358     13.68586      8.48094        -1.421477      0.752877     -0.244089
Au      5.95536     13.11686      6.88334        -0.009672      0.494260     -1.301999
Au      8.16952     12.47256      5.37298        -0.305665      0.756703     -0.525911
Au      4.50178     11.09958      8.32870        -1.031947     -0.762473     -0.205583
Au      6.26344     14.63572      9.25892         0.253726      1.342952      0.083238
Au      6.96640     11.96320      9.15928         0.798172     -0.397495      0.392346
Au      8.47644     14.01640      7.71318        -0.087565      0.997778     -0.544124
Au     10.46344     10.80536      5.03480         0.498414      0.734776     -0.834107
Au     13.44270     13.88686      9.87990         0.656692      0.750069      0.312669
Au     10.73426     13.29856      6.22462        -0.115489      0.454746     -0.792960
Au     13.24814     13.98710      7.13414         0.577329      0.851179     -0.535818
Au     11.04858     14.75722      8.62022        -0.055107      1.000131     -0.169463
Au      9.22520     11.24732      7.55236         0.089051     -0.346237      0.799634
Au     11.82982     12.06388      8.46304        -0.559024     -0.633322      0.438695
Au     14.62898     11.87448      8.25794         1.005498      0.073029     -0.252101
Au     12.97920     11.49130      5.99264         0.401906      0.009336     -0.891421
Au      6.66132      8.70958     12.91864        -0.901415      0.122833      0.569330
Au      8.55164      5.46420     10.27614        -0.169538     -1.099376      0.128985
Au      5.48746      9.90844     10.63972        -0.965043     -0.060789      0.602079
Au      7.50476      6.09714     12.75228        -0.613406     -0.749743      0.507296
Au      9.06710      7.88244     14.17564        -0.086773     -0.312423      1.054565
Au      6.34306      7.23896     10.50398        -0.945442     -0.522950      0.163015
Au      8.88102      8.01676     11.38028         0.454201      0.633460     -0.492077
Au     10.36158     10.05546      9.92898         0.004295      0.010466     -0.036516
Au     14.59268      7.60470     13.62226         0.787172     -0.837473      0.586121
Au     14.58366      7.63240     10.86624         0.628277     -0.371497      0.174195
Au     13.05484      5.74346     12.24422         0.229468     -0.799087      0.439162
Au     13.30134      9.71602     12.46582        -0.709814      0.057392     -0.578287
Au     16.01650      9.55226     12.23176         1.308772     -0.166057      0.147431
Au     10.24290      5.86226     12.55016         0.173409     -0.986431      0.444702
Au     13.46558      9.54606     15.18750         0.354432     -0.155663      1.194483
Au     11.70128      7.81916     11.13824        -0.027490      0.739664     -0.557360
Au     11.33750      5.21948     10.04374        -0.078103     -1.069019      0.526763
Au     10.50430      9.87256     12.78874         0.288780      0.358084     -0.752174
Au     11.85878      7.65854     13.98062        -0.173082     -0.719188      0.784826
Au     10.70952      9.77790     15.49440        -0.167467     -0.327238      0.851079
Au      7.50188     13.28404     14.35270        -0.163283      0.288430      1.149878
Au      8.98650     15.21270     12.95030        -0.294935      1.223519      0.354633
Au      5.17996     13.94758     13.13954        -1.081366      1.104976      0.535110
Au      8.80450     15.40440     10.17404        -0.283321      0.857850     -0.216385
Au      5.87018     11.40026     13.05346        -0.459496     -0.975378      0.246837
Au      8.24108     10.56610     14.35346        -0.668165     -0.282933      0.752146
Au      4.76886     12.63066     10.77724        -0.947545     -0.229731      0.481040
Au      8.04972     10.73440     11.50386         0.509415      0.260502     -0.481119
Au      7.29644     13.51568     11.58206         0.189210      0.254188     -0.349846
Au     11.29142     14.38136     14.16302         0.544219      0.953290      0.713739
Au      9.72374     12.58108     12.83506        -0.007866     -0.586890     -0.596400
Au     12.17688     11.77622     14.20960         0.235740      0.212310      0.554213
Au     14.84794     11.75418     11.05124         0.836844      0.690191     -0.181299
Au     14.88824     11.49504     13.79666         0.895350      0.723332      0.726374
Au     11.21900     14.66426     11.42216         0.472138      1.056616     -0.105595
Au      9.86170     12.43380     15.54918        -0.252957      0.284029      1.104611
Au      9.56728     12.78724     10.00290        -0.241537     -0.773597      0.318204
Au     12.00986     11.93798     11.30894        -0.541773     -0.757909     -0.103975
Au     13.55824     13.67888     12.70178         0.587698      0.733535      0.120335
