75
# total energy = -211.29230367 eVAu      7.95640     10.15778      4.30125        -0.013669     -0.003023      0.055855
Au      5.13628      8.24185      8.32988        -0.002851     -0.034257     -0.001746
Au      7.58887      9.30453      8.97971        -0.007552     -0.028791     -0.015697
Au      7.27646      6.41177      8.09130        -0.015405     -0.006124      0.005788
Au      8.51639      8.38752      6.41230        -0.016253     -0.008777     -0.020611
Au      6.44431     10.51279      6.66038         0.000569     -0.008990      0.002235
Au     13.95346      6.64796      6.02769         0.005426      0.005807     -0.003415
Au     12.66297      8.89264      4.91695         0.005507     -0.018628     -0.009248
Au     15.67860      7.00060      8.28593        -0.022855     -0.006065      0.001890
Au     12.79843      7.33930      8.49664         0.036089     -0.021153     -0.005381
Au     10.05965      8.39732      4.05520        -0.003789      0.043978      0.005664
Au     12.43834      4.71293      7.49248        -0.017766      0.013353      0.023512
Au     13.05970      9.86722      9.62499         0.017910      0.026701      0.011679
Au     11.02164      6.78381      6.10948        -0.031882     -0.001743      0.017809
Au     14.19301      5.09268      9.68932        -0.037588      0.033915      0.001696
Au      9.93057      7.46312      8.74041        -0.020240     -0.033399     -0.041742
Au     14.54663      9.27713      7.01829         0.014006      0.011110     -0.019344
Au     15.86244      9.48134      9.55918         0.025525     -0.015894      0.007232
Au      9.64015      4.86505      7.79831         0.001757      0.031351     -0.001170
Au     11.24841      9.50729      7.26788        -0.026155      0.008631      0.003335
Au      4.14826     13.59743      8.54627         0.012317     -0.004835     -0.022333
Au      6.14992     13.40119      6.64846        -0.008596     -0.011681     -0.002162
Au      8.33119     12.74072      5.17257         0.031129      0.012987     -0.031105
Au      4.24163     10.82485      8.52946        -0.016005      0.003126      0.028643
Au      6.45965     15.04647      8.93423        -0.006127      0.026912      0.010391
Au      6.70533     12.10601      9.15501         0.000553     -0.007889     -0.021088
Au      8.66892     14.56401      7.35406         0.015495      0.048913     -0.000278
Au     10.59550     11.04462      4.70505         0.040049      0.014063     -0.011434
Au     13.51932     13.86826      9.96453         0.018108      0.021318     -0.013740
Au     10.89484     13.50836      6.00153         0.021609      0.008662     -0.011896
Au     13.40690     13.98165      7.16136         0.041996      0.047531     -0.008433
Au     11.17125     14.97207      8.53916        -0.001654      0.005359     -0.000098
Au      9.03176     11.35360      7.50850        -0.008543     -0.021192     -0.036888
Au     11.64757     12.13009      8.40181        -0.047874     -0.019096     -0.003042
Au     14.71641     11.77625      8.29424         0.029947      0.002459      0.006378
Au     13.07116     11.47995      5.93468         0.014279      0.014099     -0.029250
Au      6.55073      8.60917     13.07614         0.024739     -0.035698      0.027414
Au      8.57736      5.26183     10.35987         0.014750     -0.000409      0.002886
Au      5.07778      9.60250     10.90503        -0.056193      0.007788     -0.007581
Au      7.54985      6.01043     12.84490         0.002060      0.003045      0.018937
Au      9.14099      7.87939     14.24531        -0.011013      0.006578      0.003672
Au      6.14976      6.98933     10.61540         0.027868     -0.027155      0.029766
Au      8.77195      8.05475     11.29741        -0.037780     -0.062783      0.002195
Au     10.17925     10.10523      9.85213         0.058042      0.041142      0.001273
Au     14.76622      7.51724     13.68878        -0.004299     -0.030162      0.006352
Au     15.60693      7.04531     11.07642         0.018458      0.004699      0.030472
Au     13.21987      5.77470     12.19237        -0.008256     -0.007060      0.004897
Au     13.33591      9.69362     12.44595        -0.005426      0.029941     -0.014722
Au     16.21776      9.48436     12.31377        -0.013992      0.018439     -0.022038
Au     10.35563      5.78160     12.57792         0.009728      0.004703     -0.003876
Au     13.60199      9.52939     15.28116        -0.028125     -0.016616      0.009878
Au     11.69285      7.85508     11.02529        -0.021047     -0.056903      0.039964
Au     11.41722      4.99080     10.10067        -0.012419     -0.041217      0.014333
Au     10.48333      9.93335     12.69131         0.006279     -0.015110     -0.000981
Au     11.95197      7.59025     14.05408         0.021434      0.020920      0.003913
Au     10.82436      9.87733     15.44614        -0.007030      0.011965      0.010243
Au      7.36421     13.30186     14.36433         0.009321      0.005878     -0.003291
Au      8.95549     15.34468     12.87939        -0.014761      0.007731      0.028903
Au      4.91568     13.88686     13.21401         0.001262     -0.024499     -0.001526
Au      8.89595     15.65202     10.06136        -0.013843     -0.014530      0.005896
Au      5.66481     11.21764     13.20366         0.030311     -0.008242      0.006970
Au      8.13017     10.52120     14.48595         0.039228      0.005530     -0.011533
Au      4.37212     12.32484     10.97957        -0.007444      0.014581      0.001950
Au      7.86332     10.81145     11.42443        -0.032892     -0.018311     -0.003702
Au      7.04224     13.78863     11.45004        -0.022849      0.016879      0.003887
Au     11.30526     14.43244     14.18477         0.025278      0.041272     -0.012037
Au      9.59285     12.61154     12.76955         0.001353      0.027712      0.012599
Au     12.58543     12.13885     15.14956        -0.013638     -0.012734     -0.034643
Au     14.99365     11.74867     11.11492        -0.000661      0.004727     -0.003246
Au     15.03433     11.52244     13.92560        -0.009049     -0.019563     -0.008872
Au     11.31117     14.86345     11.39465         0.021300      0.000896      0.022712
Au      9.81677     12.50537     15.56008        -0.039937     -0.040891      0.008823
Au      9.34750     12.87561      9.96019        -0.000900      0.005631     -0.027951
Au     11.89084     11.91351     11.29270         0.011042     -0.003328     -0.011264
Au     13.55477     13.60060     12.79500         0.011633      0.026418     -0.002681
