75
# total energy = -211.38834759 eVAu      8.68216      8.96731      5.91247        -0.000316     -0.008265      0.027480
Au      6.34973      8.06042      9.72557         0.017428     -0.016503      0.021566
Au      9.34807      8.28872      8.79178        -0.009605     -0.030533     -0.021555
Au      7.53967      6.63291      7.52357         0.010029      0.003275      0.018714
Au      6.07201      8.94042      7.06867         0.006239     -0.001613     -0.001100
Au      9.49725      6.24893      5.61881         0.004825     -0.002852     -0.009075
Au     16.72913      7.42777      8.36858        -0.000447      0.009589      0.025372
Au     10.99343      8.76477      4.23301         0.015534     -0.007070     -0.001865
Au      9.99587      5.23761      8.24381         0.018777      0.013609     -0.040684
Au     16.47390     10.22897      8.84213         0.029709     -0.042116      0.017190
Au     11.47746      7.82758      6.86760        -0.007262      0.040908      0.055421
Au     12.05439      5.02169      6.34823        -0.016157     -0.032136      0.046189
Au     15.40449      5.15456      9.61296         0.010125      0.000366      0.011979
Au     11.64314      6.08597      3.85544         0.000811      0.000534     -0.025712
Au     14.14970      6.59621      7.49173         0.029018     -0.010174      0.023494
Au     11.96351      7.13499      9.57180        -0.044393     -0.002466     -0.027802
Au     13.61230      7.67949      4.92366         0.010469      0.030646     -0.011492
Au     12.73788      4.49529      8.96411        -0.014200      0.007211     -0.045816
Au     15.41038      9.04414      6.49348        -0.025467      0.004921      0.004532
Au     13.28602      9.39294      8.34642        -0.029754      0.018405     -0.062533
Au      4.37867     13.12326      8.81299         0.015320     -0.027216      0.035118
Au      6.84260     13.61655      7.52220        -0.004077     -0.018846     -0.003294
Au      7.68850     11.60629      5.62176        -0.011743      0.017868      0.021061
Au      5.16770     11.51298      6.72016        -0.011548      0.009604      0.019094
Au      7.82389     10.77547      8.32183        -0.035565      0.008470     -0.013560
Au      4.85895     10.37385      9.26316         0.000605      0.039337     -0.018555
Au      8.69334     14.93782      9.14059         0.009670      0.011931      0.002454
Au      9.52912     13.37345      6.84621         0.010410     -0.024491     -0.018654
Au     10.36604     11.34979      4.96889         0.024001      0.020824     -0.009939
Au     12.27387     12.88340      6.44492        -0.038047     -0.004386      0.021606
Au     14.75960     11.72794      7.18751        -0.007907     -0.009041     -0.016387
Au     11.39405     14.57446      8.57324         0.035628     -0.018548     -0.014280
Au     10.67112     10.53587      7.58018         0.027216     -0.007670      0.014118
Au     12.63152     12.11614      9.09725        -0.019107      0.047395     -0.062346
Au      9.73682     12.31497      9.72470         0.011375      0.006646     -0.004037
Au     13.02629     10.37917      5.41992        -0.009597     -0.036825     -0.000185
Au      7.55332      9.87274     14.04340        -0.008405      0.021486     -0.003927
Au      8.05846      5.85005     10.17893        -0.009917      0.014277     -0.009664
Au      8.71159      5.32413     12.85715         0.033876      0.036110     -0.013611
Au      8.33780      9.99159     10.99838         0.002211     -0.010438      0.006753
Au      9.23740      7.60128     14.42038         0.012960     -0.021947     -0.016477
Au      7.14212      7.59163     12.40225         0.007130     -0.024050     -0.021286
Au     11.17907      9.85641     10.28793        -0.023708      0.004763      0.014249
Au     17.31242      8.41526     10.93448        -0.019198      0.010775     -0.024037
Au     14.62781      7.79130     10.22984         0.069783     -0.027668      0.017367
Au     14.01081      6.64105     14.04700         0.026481     -0.021467      0.013493
Au     13.42315      5.09900     11.66416         0.037550     -0.003937      0.001680
Au     16.00979      6.21115     12.15854        -0.012289      0.000712     -0.017154
Au     10.72471      4.78007     10.93189        -0.025571      0.014596      0.025907
Au     15.36038      8.89659     13.01700         0.012176      0.012557      0.003476
Au     11.95400      8.30804     15.00869        -0.009721      0.029108      0.003055
Au     12.62897      8.21531     12.20190        -0.008866      0.002749      0.006836
Au     10.44766      9.96198     13.06690         0.014672     -0.003996     -0.013404
Au     11.39349      5.85133     13.50694        -0.049855      0.000561     -0.011833
Au      9.91060      7.57694     11.55055        -0.002809     -0.003030      0.015420
Au      9.83077      9.99444     15.77596         0.022657      0.003199      0.009538
Au      6.19764     12.24054     13.42781         0.016853     -0.016432      0.015600
Au      8.93705     12.37536     12.46978         0.004819      0.022912      0.051499
Au      6.01738     15.04658      9.90279        -0.012475      0.000914     -0.021951
Au      4.32494     12.23881     11.42686        -0.010207     -0.003578     -0.041715
Au      5.63989      9.84880     11.88951         0.002180     -0.019373      0.013427
Au      8.34764     12.34664     15.22984        -0.017663      0.013323     -0.024546
Au      6.95559     12.46725     10.46093        -0.052101      0.025219     -0.002625
Au      7.88010     15.01455     11.91061         0.034116     -0.002801      0.009295
Au     12.46101     14.37403     13.39014         0.014184     -0.007795      0.010521
Au     13.28911     14.38992     10.65561         0.017848     -0.020887     -0.012582
Au     14.59386     12.72680     12.59104        -0.009501      0.013272      0.001253
Au     13.92976     10.42658     10.99761         0.033147     -0.020227      0.023067
Au     13.33326     10.60402     14.01053        -0.025079     -0.015562     -0.006703
Au      9.69940     14.59774     14.00508        -0.028415      0.003239     -0.015763
Au     10.59861     14.97359     11.28456        -0.018905      0.003734      0.018933
Au     11.16623     12.25463     14.73352        -0.005845      0.000046      0.000164
Au     15.35616     12.68866      9.74138        -0.014018      0.018966      0.028536
Au     11.75934     12.16760     11.85834        -0.007821     -0.011088      0.017190
Au     16.60035     11.00806     11.62048         0.007729     -0.009031     -0.006499
