38
# total energy = -101.90070111 eVAu     13.75069     11.90723     13.64785         0.005595      0.024163      0.031876
Au     13.91299     15.40309     10.53910         0.027222     -0.005526     -0.001415
Au     11.19427     15.89375     14.48457         0.033100     -0.004769      0.005673
Au     12.61346     14.30083     12.63987        -0.009755     -0.025375      0.011025
Au     16.58063     12.17421     14.14696         0.005957      0.000000      0.004521
Au     19.25846     16.02931     14.55904        -0.004620     -0.003757     -0.022099
Au     16.67327     15.39419     10.60342         0.028711      0.010873      0.015834
Au     15.23594     15.78614     13.32798        -0.009550      0.023344     -0.074962
Au     17.89132     14.26405     12.80284         0.030634      0.000502      0.016747
Au     15.35930     13.26591     11.85944         0.014590      0.048597      0.018203
Au     12.81057     17.13650     12.39423        -0.032672      0.006315      0.055565
Au     11.95352     18.55703     14.55837         0.035328     -0.014333     -0.029722
Au     17.02781     19.71552     12.56377         0.021900      0.010441     -0.000099
Au     16.81857     17.78106     14.75282        -0.083763     -0.010228     -0.071491
Au     14.43191     19.21582     13.51563        -0.014445      0.007107     -0.009445
Au     18.06037     17.10999     12.21023         0.044232     -0.052200      0.022141
Au     15.38341     17.79702     11.30523        -0.007963      0.013189     -0.021920
Au     19.31340     18.77941     14.10611        -0.021668     -0.011711      0.018644
Au     14.10081     14.14946     15.32205        -0.025338     -0.064885      0.030279
Au     12.74066     12.68323     17.34573         0.022326     -0.004459     -0.001803
Au     11.50125     13.07144     14.84316         0.017886      0.025674     -0.012027
Au     13.32966     15.23618     18.25663         0.002559      0.038274     -0.008423
Au     10.79388     14.66730     17.00942         0.027946     -0.034269     -0.013588
Au     18.13743     14.27910     17.85143        -0.005422      0.022866     -0.045244
Au     15.44747     13.41506     17.95242        -0.052422     -0.039338      0.001984
Au     16.69290     15.11123     15.62829        -0.012923     -0.006610      0.009764
Au     16.04536     16.11715     18.44004         0.076264      0.017883     -0.027678
Au     14.83904     11.32363     16.16007        -0.014570      0.002715      0.011671
Au     17.47178     11.72834     16.85471         0.013129      0.030770      0.012624
Au     18.93519     13.40282     15.24115        -0.043608      0.008085     -0.021600
Au     13.91101     19.57468     16.24115         0.055894      0.006760     -0.018899
Au     11.73867     17.23783     16.94093         0.009317      0.019500      0.019392
Au     13.93447     17.91771     18.49988         0.010684      0.022746      0.034850
Au     18.85062     19.72090     16.63527        -0.008497     -0.000478     -0.003595
Au     16.43244     20.50861     15.21278         0.010210      0.009455      0.027254
Au     16.36309     18.82482     17.50188        -0.052376     -0.008742      0.069891
Au     18.45318     16.97149     17.14189        -0.002643     -0.024410     -0.029012
Au     14.40678     16.86319     15.82468        -0.091245     -0.038169     -0.004914
