38
# total energy = -101.77818913 eVAu     12.14747     14.86050     11.06057        -0.006462      0.001908      0.005115
Au     12.32714     12.92266     13.29506         0.001166      0.008881     -0.032336
Au     11.36247     15.55521     13.63297        -0.059922     -0.000359     -0.088163
Au     14.19678     13.03881     11.03958         0.012082      0.015741     -0.023814
Au     15.15340     12.13356     13.50677         0.017526     -0.043490     -0.047626
Au     16.89800     15.60906     13.98197        -0.017934     -0.033480      0.051146
Au     14.97759     15.90561     10.60558         0.027145     -0.021417     -0.017838
Au     14.29638     14.96828     13.14561        -0.040950      0.000124     -0.069509
Au     19.22205     14.49007     12.61957        -0.030949     -0.028761     -0.005762
Au     17.63169     16.51508     11.36802         0.037533      0.006623      0.048334
Au     16.72775     13.78991     11.71411        -0.057340      0.001009      0.010424
Au     12.95026     17.38810     11.92164         0.000311      0.056126      0.023127
Au     11.29435     18.32792     14.03309         0.026273      0.052396     -0.025098
Au     13.70820     19.53850     13.56975        -0.022399      0.038094      0.045141
Au     18.19947     18.96092     12.59033         0.052095     -0.004454     -0.000505
Au     20.13699     17.07141     12.87918         0.134226     -0.070273     -0.053066
Au     16.21935     20.63939     13.43884        -0.056687      0.033619      0.023314
Au     15.54311     18.41367     11.72834        -0.014329     -0.097465      0.070144
Au     13.85261     13.17018     17.83576         0.028144     -0.015442      0.014875
Au     11.91880     14.06596     15.92472         0.045256      0.018473      0.012837
Au     13.21401     11.66177     15.54182         0.048499     -0.071371     -0.010978
Au     13.15175     15.99388     17.73629        -0.009976      0.017110      0.043477
Au     17.74216     12.89162     14.33025         0.037805      0.004552     -0.015434
Au     19.38584     15.35972     15.27358        -0.027079      0.016881     -0.060790
Au     15.03460     14.59083     15.76103        -0.096353      0.015132      0.022626
Au     15.71792     15.27274     18.44216         0.027862      0.044754      0.042583
Au     15.90594     11.93060     16.20459        -0.030781     -0.029722      0.064866
Au     17.65766     13.95345     16.94599         0.053575     -0.004356      0.014831
Au     13.72389     16.90149     14.98649        -0.047845     -0.035951     -0.029496
Au     10.98831     16.62466     16.21261        -0.062226      0.012625     -0.038709
Au     12.63140     18.90604     16.52377        -0.058434     -0.070720      0.050523
Au     17.42150     19.48692     16.87904        -0.049246      0.041558     -0.014758
Au     18.66567     20.85965     14.68428         0.032213     -0.020132     -0.040581
Au     14.94292     20.34441     15.97490        -0.044720      0.002116     -0.008258
Au     15.12595     17.93797     17.53675         0.059265      0.021132      0.087486
Au     17.65386     16.71845     17.09327        -0.017605      0.014044     -0.054953
Au     16.24426     18.09360     14.68046         0.043949      0.077580      0.025376
Au     19.17512     18.13050     15.20061         0.066309      0.046913     -0.018546
