38
# total energy = -101.45727083 eVAu     14.02436     14.07432     11.60187        -0.073736      0.012062      0.053580
Au     12.91469     12.02351     13.06284        -0.092555     -0.006137      0.046817
Au     11.71723     14.60430     13.47191         0.061457      0.013444      0.062664
Au     15.63734     12.05710     12.83197         0.095533      0.040388      0.068809
Au     19.24625     14.99835     12.88621         0.036921      0.035292      0.075859
Au     16.87264     14.25908     14.60778         0.022864      0.047576     -0.036724
Au     18.39726     12.35667     12.92732        -0.054836     -0.001494      0.039062
Au     16.87640     14.24521     11.48661         0.010436     -0.054106      0.056179
Au     12.87007     16.66386     11.96173        -0.016199     -0.020667      0.018977
Au     12.91673     19.18212     13.19630         0.082304     -0.128461     -0.111323
Au     17.75933     19.39812     13.13559        -0.067023     -0.011378      0.068013
Au     15.22637     16.23625     10.38192        -0.084359      0.040970      0.092316
Au     15.20775     16.21958     13.37043        -0.067622     -0.031340     -0.048052
Au     17.65132     16.94568     11.52453         0.030845      0.000783      0.106626
Au     15.32330     18.60775     11.81959        -0.038045      0.035320      0.083880
Au     19.90888     17.64186     13.01503         0.070796     -0.034320      0.048289
Au     14.10627     14.79061     18.48795        -0.001556      0.109692     -0.064984
Au     14.11673     14.02265     14.82021        -0.067420     -0.007069     -0.061552
Au     13.13017     12.40075     17.56104         0.015891      0.024134     -0.059057
Au     11.45343     12.43023     15.32517         0.070722     -0.024808     -0.048478
Au     14.42749     11.29088     15.34106         0.100275     -0.046196      0.014335
Au     11.99933     14.88135     16.53717         0.010779      0.010647     -0.006919
Au     17.20341     11.55160     15.31734        -0.019310      0.017435     -0.063482
Au     18.05172     15.01639     17.27716        -0.087749      0.000532     -0.032350
Au     15.92068     13.13201     17.19202        -0.067709      0.016690     -0.013934
Au     19.41380     13.47912     15.36268        -0.016525      0.039877     -0.047611
Au     12.16355     17.01983     14.78608        -0.000766      0.037854      0.021557
Au     13.16500     17.22534     17.53433        -0.042647     -0.054590     -0.071959
Au     13.00439     19.47001     15.95550         0.068460     -0.146724      0.054128
Au     18.23467     17.83567     17.28462        -0.012563      0.078947      0.016694
Au     17.46380     20.29190     16.05762        -0.060699     -0.071711      0.081738
Au     19.97010     16.20732     15.51139        -0.027479     -0.056934     -0.031360
Au     15.47217     18.83830     17.32976        -0.000927     -0.053721     -0.085545
Au     16.23194     16.52334     18.77676         0.038029     -0.011214     -0.135484
Au     19.79581     19.13753     15.28064         0.062640     -0.090208     -0.062781
Au     17.45314     17.09829     14.67020         0.071255      0.088894     -0.183374
Au     15.36214     19.22967     14.54069         0.062483      0.211582     -0.050568
Au     15.34746     16.09752     16.17439        -0.011964     -0.011043      0.206017
