38
# total energy = -100.92431450 eVAu     13.73851     11.80515     13.61319        -0.087716     -0.052901      0.016106
Au     13.96887     15.48030     10.55576         0.181136      0.003786      0.012946
Au     11.87388     15.84793     14.69147        -0.829410     -0.025514      0.162795
Au     12.76239     14.26376     12.66333        -0.224060     -0.197827     -0.413788
Au     16.39860     12.49277     14.29358         0.277107     -0.647336      0.166864
Au     19.26817     16.09397     14.57556         0.274398      0.111926     -0.056534
Au     16.73990     15.36550     10.57929        -0.279449     -0.088815     -0.268931
Au     15.29155     15.84917     13.35222        -0.279145      0.068469     -0.925466
Au     17.80344     14.38751     12.93467         0.357730     -0.257522     -0.484125
Au     15.34273     13.29909     11.91083         0.015452      0.122778     -0.422836
Au     12.83450     17.12115     12.45176        -0.095310      0.029465     -0.548740
Au     11.97199     18.59064     14.56809        -0.281691      0.251446      0.176880
Au     17.00900     19.69317     12.66080         0.125139      0.011474     -0.081394
Au     16.86570     17.69626     14.79298         0.719518      1.023387     -0.221412
Au     14.53691     18.91961     13.68243        -0.132892      0.542787     -0.156181
Au     17.99522     17.06997     12.20488         0.362520      0.305482     -0.071830
Au     15.42207     17.85292     11.26116        -0.087787     -0.206649     -0.259633
Au     19.45043     18.79439     13.82046        -0.025984      0.004809      0.085109
Au     14.13389     14.13877     15.29550        -0.712132     -0.749593     -0.031417
Au     12.67998     12.63628     17.38594        -0.181692      0.113834     -0.065044
Au     11.51690     13.00941     14.83088         0.134533      0.073405      0.194370
Au     13.37741     15.27282     17.97009        -0.547998      0.099394      0.385362
Au     10.80384     14.70361     16.99013        -0.014870      0.045573      0.055849
Au     18.13001     14.26837     17.90061        -0.132578     -0.195929     -0.183625
Au     15.38149     13.44322     17.82271         0.277954     -0.555783      0.253308
Au     16.62285     15.11459     15.58732         1.025949     -0.577040      0.676616
Au     15.99223     16.09248     18.25158         0.284156      0.057500      0.627408
Au     14.72066     11.24551     16.16971         0.180694     -0.118710      0.046722
Au     17.38163     11.75465     16.81971         0.114634      0.050273      0.069323
Au     18.97743     13.46973     15.27314        -0.133693     -0.164386      0.247411
Au     13.79421     19.64532     16.38006        -0.147836     -0.154480      0.072425
Au     11.69373     17.39577     17.05839        -0.021657     -0.093600      0.018901
Au     13.94209     17.91285     18.61329        -0.215094      0.104150      0.059111
Au     18.65743     19.54985     16.33174         0.115613      0.023827      0.037647
Au     16.21668     20.52989     15.24786         0.090768      0.043257      0.075800
Au     16.25581     18.73718     17.45902         0.266555      0.355736      0.148673
Au     18.42649     16.88962     17.13984         0.181667      0.164138      0.173868
Au     14.41693     16.88202     15.78111        -0.554527      0.479193      0.427461
