38
# total energy = -101.65303525 eVAu     13.98367     14.02806     11.68432         0.000888     -0.009987     -0.023125
Au     12.89509     11.91950     13.12840        -0.000826     -0.004007     -0.011455
Au     11.65423     14.49228     13.60726        -0.003970     -0.012379      0.014982
Au     15.64529     12.05610     12.88167        -0.007742      0.005097     -0.010395
Au     19.32387     14.99549     12.87378        -0.004469      0.017546     -0.002735
Au     16.90166     14.34766     14.51396        -0.048327      0.042808     -0.004361
Au     18.39740     12.38461     12.88462        -0.004510     -0.011560      0.002161
Au     16.83638     14.26519     11.50929        -0.004943      0.001979      0.000672
Au     12.63417     16.50221     11.98306        -0.018594      0.003563     -0.029482
Au     13.09731     18.99429     13.12455         0.021907     -0.009329      0.011171
Au     17.91305     19.53285     13.32281         0.003877      0.016040      0.001863
Au     15.13239     16.33145     10.60617        -0.002856     -0.005706      0.014257
Au     14.97500     16.23933     13.44114         0.005658      0.002837      0.050228
Au     17.69685     16.92723     11.58630         0.019764     -0.019160     -0.014066
Au     15.58513     18.69161     12.01686         0.016910      0.016132     -0.025400
Au     19.95787     17.65109     13.04080        -0.004651     -0.001405      0.001338
Au     14.03603     14.86107     18.44292         0.011762     -0.035678      0.017506
Au     14.13286     13.90465     14.83465         0.014239      0.029577      0.006289
Au     13.14252     12.41127     17.51186        -0.006872     -0.000144      0.006539
Au     11.39822     12.30614     15.36076         0.003845      0.009330      0.007085
Au     14.50057     11.17673     15.36815         0.013166      0.014796      0.016424
Au     11.94172     14.83019     16.47989         0.004167     -0.002351      0.019457
Au     17.23019     11.65392     15.31476         0.014649      0.006047      0.008662
Au     18.04822     14.95215     17.23592        -0.001875     -0.012223     -0.008316
Au     15.87981     13.16656     17.20201        -0.002383     -0.011744     -0.005193
Au     19.42974     13.46766     15.31268        -0.012341      0.002101      0.006937
Au     12.02719     17.02260     14.76094        -0.017121     -0.008564     -0.004041
Au     13.08974     17.21695     17.40452        -0.015241      0.012988     -0.013396
Au     13.02537     19.44013     15.85048         0.011648     -0.011347     -0.015902
Au     18.24285     17.76983     17.20000         0.004771     -0.016058     -0.007828
Au     17.58588     20.25045     16.08938         0.010970      0.005926      0.012698
Au     19.93419     16.18441     15.47169        -0.004769      0.005605      0.014016
Au     15.47014     18.76242     17.09159         0.010527      0.006992      0.025415
Au     16.25126     16.51979     18.70998         0.002981      0.013450      0.006525
Au     19.97161     19.07832     15.35881        -0.008217      0.017566      0.013804
Au     17.35114     17.14670     14.53514        -0.032837     -0.024072     -0.006707
Au     15.36411     19.97183     14.48429         0.010455     -0.024436      0.002192
Au     15.35442     16.03137     16.18003         0.020358     -0.010232     -0.077819
