38
# total energy = -101.31991956 eVAu     13.99141     14.08280     11.59041         0.042122     -0.051147      0.066632
Au     12.91543     12.00766     13.04445        -0.047099      0.032358      0.033097
Au     11.75281     14.65473     13.45322        -0.080573     -0.117498      0.012585
Au     15.63461     12.06760     12.82945         0.008129      0.030538      0.017500
Au     19.25422     15.01152     12.90482        -0.029060      0.045353     -0.016219
Au     16.85011     14.25081     14.61749         0.020121      0.004577     -0.065347
Au     18.38239     12.37176     12.95124         0.043127     -0.024204     -0.103473
Au     16.87645     14.25184     11.49023        -0.018204     -0.003127      0.033368
Au     12.89896     16.69682     11.94319        -0.093006      0.029231     -0.016559
Au     12.89373     19.23087     13.15002        -0.015743     -0.050031      0.112000
Au     17.65084     19.38314     13.13692         0.127031      0.008870     -0.010259
Au     15.21320     16.25263     10.40259         0.042587     -0.054337     -0.108610
Au     15.25913     16.19281     13.33429        -0.055396      0.034472      0.019003
Au     17.64880     16.96249     11.53299        -0.013040      0.006604      0.051938
Au     15.24372     18.63969     11.77357         0.115950      0.009500      0.043746
Au     19.91088     17.66791     13.00155        -0.019294     -0.026381      0.023646
Au     14.08647     14.81125     18.52621         0.068175     -0.043731     -0.035701
Au     14.08824     14.02653     14.80639         0.032045     -0.038558      0.007454
Au     13.12645     12.40454     17.55452         0.063152      0.039602      0.044410
Au     11.49594     12.47470     15.30786        -0.033539     -0.039998     -0.064142
Au     14.44473     11.27987     15.35183        -0.054404     -0.016283     -0.020298
Au     12.01084     14.89551     16.58061        -0.023560      0.007959     -0.038201
Au     17.17837     11.53613     15.29461         0.033405     -0.013504      0.074617
Au     18.03987     15.07092     17.26296        -0.020150     -0.050012     -0.039397
Au     15.87761     13.17513     17.15541         0.022826      0.000810      0.017510
Au     19.38019     13.48635     15.36199         0.081154     -0.077288      0.066265
Au     12.48752     16.97431     14.79792        -0.189931      0.074079     -0.024047
Au     13.18025     17.22929     17.58690        -0.019197      0.013453     -0.015044
Au     13.00514     19.46379     15.98334        -0.012609      0.008908     -0.054838
Au     18.20673     17.91575     17.34187         0.036060     -0.120886     -0.055413
Au     17.40352     20.23918     15.98922        -0.024521      0.055383      0.009820
Au     20.00128     16.16689     15.51860         0.014198      0.101878     -0.006266
Au     15.45304     18.86718     17.37541         0.004405     -0.007301     -0.050231
Au     16.23401     16.54029     18.75023        -0.045619     -0.043478      0.099390
Au     19.78350     19.06217     15.30697         0.035133      0.012986     -0.044635
Au     17.52165     17.07291     14.66366        -0.016742      0.050813      0.003309
Au     15.30038     18.96989     14.55964         0.078988      0.167607     -0.007822
Au     15.35471     16.09637     16.17282        -0.056921      0.042781      0.040210
