38
# total energy = -101.85154646 eVAu     12.11516     14.85635     11.05872         0.019125      0.022500      0.014515
Au     12.30595     12.88063     13.27841         0.005138      0.015854     -0.003323
Au     11.28532     15.52934     13.60160         0.017492      0.016680     -0.044913
Au     14.18215     13.04175     11.02206        -0.006379     -0.019119      0.006851
Au     15.16503     12.12389     13.50175        -0.015459     -0.050322     -0.032234
Au     16.82470     15.56433     14.05771        -0.009999     -0.017340     -0.014478
Au     14.99917     15.91339     10.61229         0.017952      0.015441      0.025293
Au     14.23721     14.93605     13.12103         0.029972      0.053365      0.031552
Au     19.18969     14.50129     12.62450         0.050767     -0.013586      0.008598
Au     17.65024     16.52915     11.44948        -0.024612     -0.031345     -0.003383
Au     16.69911     13.81177     11.72962        -0.018770     -0.013370     -0.004571
Au     12.96240     17.39498     11.92594        -0.001264     -0.000041      0.007925
Au     11.31891     18.32961     14.02965         0.021028      0.018435     -0.004164
Au     13.71021     19.59233     13.57186        -0.014424     -0.049035      0.006610
Au     18.25748     18.97254     12.59487         0.001773     -0.024435      0.012620
Au     20.23074     17.06216     12.85175        -0.027753     -0.024517      0.012772
Au     16.26365     20.64850     13.53473        -0.018134     -0.044723     -0.000540
Au     15.56779     18.38232     11.82628         0.007626     -0.012472     -0.011943
Au     13.84960     13.14534     17.87625         0.001707      0.037254      0.027169
Au     11.96645     14.05571     15.89741        -0.037491     -0.011118      0.015136
Au     13.23633     11.63573     15.53494         0.016109      0.030006     -0.024298
Au     13.14740     16.02636     17.73330        -0.005623      0.003420     -0.010537
Au     17.74012     12.87510     14.33552         0.023491     -0.000767     -0.030966
Au     19.37698     15.40536     15.23797         0.019409     -0.011826     -0.026661
Au     14.91342     14.57293     15.77453        -0.022105      0.024779     -0.039488
Au     15.74068     15.29206     18.42195        -0.048962      0.031343     -0.025771
Au     15.90215     11.96197     16.24275         0.005852     -0.028563     -0.024474
Au     17.66928     13.98363     16.92037         0.016386      0.051999      0.003834
Au     13.70324     16.91051     14.92699         0.019923     -0.004596     -0.005275
Au     10.94458     16.57432     16.16879        -0.024245     -0.033717      0.017847
Au     12.59681     18.80641     16.59627         0.013535     -0.004189      0.062758
Au     17.40999     19.54437     16.77975         0.034468      0.000970     -0.009992
Au     18.80584     20.86625     14.61475        -0.011585      0.033270      0.012908
Au     14.85800     20.32683     16.00899        -0.024800     -0.022771      0.003834
Au     15.15236     17.95183     17.55900         0.013862      0.038064      0.050013
Au     17.64862     16.75691     17.02617        -0.009936      0.038544     -0.017055
Au     16.26022     18.09761     14.67543        -0.010085     -0.036370      0.007394
Au     19.25965     18.16350     15.17599        -0.003987      0.022300      0.006439
