38
# total energy = -101.81216670 eVAu     12.76793     14.37047     11.85357         0.019673     -0.053200      0.016648
Au     12.70201     11.81103     12.84110        -0.019170      0.032152     -0.004056
Au     11.40668     13.81217     14.43985        -0.010404     -0.008264     -0.028893
Au     17.36554     12.04914     13.35854         0.035880     -0.021626     -0.018650
Au     14.98339     10.87096     14.13006         0.065576      0.018461     -0.021185
Au     19.94083     15.50558     12.83122        -0.003509      0.012054      0.005432
Au     16.56723     14.86324     14.07039         0.051208     -0.043314     -0.025300
Au     15.39024     15.53829     11.07018         0.031414     -0.026520     -0.058888
Au     17.77475     14.17711     11.64823        -0.057814     -0.019347     -0.002297
Au     15.14684     12.91192     11.97030         0.018831     -0.000946     -0.025238
Au     12.98363     16.98543     11.04886        -0.065913     -0.031513     -0.026829
Au     11.27835     16.31483     13.33012        -0.036796     -0.010632     -0.015240
Au     14.08258     16.18082     13.71008        -0.005959     -0.029221      0.034853
Au     12.68316     18.68034     13.23272         0.048584      0.055624     -0.021149
Au     17.52670     19.57098     12.85209        -0.070985      0.027732     -0.065393
Au     14.95067     20.05938     13.93763         0.018126     -0.008320     -0.012922
Au     17.77051     16.94645     11.76726        -0.052928      0.036449     -0.006705
Au     15.28480     18.27526     11.78184         0.053405      0.073147      0.020951
Au     19.90634     18.23862     13.23043         0.042601     -0.081593     -0.026523
Au     14.22527     13.51586     14.80301        -0.022547      0.051510      0.014957
Au     12.42293     13.44961     17.01770         0.008715     -0.016964      0.026473
Au     11.85027     11.19632     15.41116        -0.020963     -0.019039      0.005863
Au     13.30816     15.58853     18.48446        -0.015827     -0.014704      0.031646
Au     17.77664     14.68543     17.12596         0.056709     -0.034912      0.020059
Au     15.21165     13.49685     18.05395        -0.001930     -0.045179     -0.037295
Au     14.25885     11.25444     16.79143        -0.006638      0.028496      0.018113
Au     16.74644     12.34049     16.02692         0.025076     -0.007285      0.010227
Au     19.01559     13.73310     14.79620        -0.042286     -0.021408      0.030517
Au     12.12123     16.12030     15.99809        -0.035243     -0.021806      0.012975
Au     13.31801     18.64875     15.88348        -0.015383      0.049413      0.007690
Au     17.47910     17.49019     17.35489         0.032837      0.080172     -0.034114
Au     18.53377     19.21032     15.41134        -0.004892      0.003450      0.098857
Au     15.95598     19.69900     16.49363         0.025451     -0.007046     -0.007032
Au     14.62952     17.98505     18.17806         0.058051      0.043607      0.001759
Au     19.19431     16.43728     15.37976        -0.031909      0.029439      0.046424
Au     16.39641     17.58282     14.52005        -0.011352      0.040418      0.011324
Au     16.15542     15.85057     19.10284        -0.031943     -0.040253      0.050123
Au     15.10312     15.81618     16.30459        -0.027746     -0.019031     -0.027182
