38
# total energy = -101.73579953 eVAu     12.16516     14.86121     11.06619        -0.063414      0.042685     -0.035803
Au     12.33788     12.94849     13.29578        -0.011638     -0.079255      0.034355
Au     11.38239     15.57020     13.63995        -0.074799     -0.016471     -0.109920
Au     14.20323     13.04008     11.04847         0.004975     -0.038838     -0.115539
Au     15.15735     12.12301     13.49418        -0.001799     -0.039128      0.021109
Au     16.92642     15.62256     13.96924        -0.134826     -0.074062      0.029938
Au     14.97665     15.89818     10.59628         0.041255      0.010668     -0.026893
Au     14.30706     14.97678     13.13803         0.042546      0.099048      0.150063
Au     19.22619     14.47721     12.60836        -0.001194     -0.015179      0.007939
Au     17.63352     16.50475     11.34712         0.018891      0.036739      0.054153
Au     16.73094     13.78168     11.71361        -0.036343      0.015878      0.009914
Au     12.95201     17.39593     11.91609        -0.044765      0.024516      0.041887
Au     11.27839     18.33153     14.04231         0.057361      0.104874     -0.117098
Au     13.70621     19.51702     13.57626        -0.026252      0.080954      0.063554
Au     18.17701     18.95126     12.59290         0.112506     -0.033347     -0.016996
Au     20.11982     17.06705     12.88214         0.113369     -0.056939     -0.025567
Au     16.20368     20.63707     13.40495        -0.094603      0.046184      0.028588
Au     15.53457     18.41606     11.70805         0.007091     -0.127320      0.061596
Au     13.86282     13.17713     17.81476         0.000215     -0.009744      0.109747
Au     11.90333     14.06577     15.93301         0.044866      0.083619      0.008013
Au     13.21488     11.67184     15.54728         0.025032     -0.103862     -0.104667
Au     13.15001     15.99410     17.74106        -0.032232     -0.009553      0.044490
Au     17.73872     12.89903     14.33087         0.058938     -0.011200     -0.030425
Au     19.38462     15.34866     15.27396        -0.011132      0.032359     -0.031273
Au     15.07031     14.59025     15.76548        -0.138016      0.138523     -0.158726
Au     15.71223     15.27884     18.44929         0.046459      0.014179      0.073336
Au     15.90616     11.92807     16.19217        -0.022316     -0.097484      0.074441
Au     17.65398     13.93936     16.95385         0.093643      0.048487      0.043862
Au     13.72966     16.90448     15.01664         0.006571     -0.184229     -0.136541
Au     10.99893     16.64492     16.20905        -0.087638     -0.086053      0.044310
Au     12.63405     18.92025     16.51146         0.009205      0.027009      0.080288
Au     17.41830     19.46680     16.90572        -0.031982      0.126314      0.034574
Au     18.60996     20.85614     14.70358         0.072899     -0.005750     -0.040754
Au     14.97628     20.35111     15.95941        -0.138092     -0.029306      0.008709
Au     15.12366     17.94105     17.54587         0.012462      0.034125      0.083267
Au     17.65006     16.71146     17.10675         0.019117     -0.073346     -0.058905
Au     16.24306     18.08642     14.68959         0.013173      0.131943     -0.002170
Au     19.14712     18.12736     15.20968         0.150467     -0.007037     -0.096856
