38
# total energy = -101.87735926 eVAu     13.76377     11.90456     13.65074        -0.017473     -0.002426     -0.004378
Au     13.93620     15.41707     10.55759         0.011002     -0.010474     -0.027220
Au     11.21724     15.88810     14.48579         0.026746     -0.008419      0.009267
Au     12.61543     14.27842     12.62428        -0.014953      0.004551      0.008738
Au     16.57963     12.18119     14.15423        -0.000875      0.008487     -0.015394
Au     19.25747     16.05084     14.56656         0.002998     -0.008527     -0.019087
Au     16.69838     15.40265     10.58572        -0.013569      0.004243     -0.008447
Au     15.26592     15.82786     13.32310        -0.003640      0.001691     -0.000941
Au     17.89543     14.27895     12.80852         0.013056     -0.018984      0.002762
Au     15.36487     13.30194     11.88091         0.004823     -0.016804      0.002451
Au     12.80835     17.12230     12.41180        -0.015655     -0.000273     -0.006308
Au     11.94595     18.55880     14.55043        -0.012734      0.018600      0.005631
Au     17.03800     19.71378     12.58513         0.003324     -0.015865     -0.003945
Au     16.88221     17.80365     14.76009        -0.060851     -0.011882     -0.007235
Au     14.43922     19.18739     13.53430        -0.004967      0.006975     -0.013429
Au     18.07366     17.09892     12.19650         0.013649      0.006399      0.007459
Au     15.38543     17.81401     11.29035         0.013676      0.005211     -0.002030
Au     19.39579     18.78923     13.98342        -0.035558     -0.002465      0.042269
Au     14.08418     14.15683     15.30817         0.025729     -0.000295      0.014250
Au     12.73470     12.68772     17.34740        -0.020588     -0.005981      0.009649
Au     11.50645     13.06934     14.84289         0.002230     -0.011299     -0.011255
Au     13.32263     15.24223     18.28019         0.014054      0.001167     -0.024027
Au     10.80877     14.67739     17.00379         0.001012      0.004884      0.005447
Au     18.11725     14.27045     17.86067        -0.000940     -0.001856     -0.012156
Au     15.41380     13.39447     17.97146         0.016028      0.027286      0.000704
Au     16.67385     15.11219     15.63563        -0.005102      0.020627     -0.016897
Au     16.04662     16.10077     18.46004        -0.009496      0.003521     -0.007117
Au     14.82288     11.31712     16.16512         0.018064     -0.021485      0.007765
Au     17.45131     11.74787     16.85147        -0.008814     -0.022594      0.016477
Au     18.91944     13.42184     15.24433         0.010421     -0.000374     -0.004665
Au     13.87426     19.55729     16.27065         0.017414     -0.010147     -0.006136
Au     11.76298     17.25071     16.94666        -0.030310     -0.005780      0.012585
Au     13.93446     17.91134     18.54359         0.014872      0.005316      0.002511
Au     18.80749     19.65991     16.51629        -0.011448      0.017024      0.036124
Au     16.35387     20.51618     15.23284         0.043488     -0.012986      0.009000
Au     16.33860     18.79704     17.50996         0.032632      0.010513      0.004749
Au     18.44508     16.94463     17.16113        -0.004093      0.019892     -0.009932
Au     14.41396     16.86027     15.81932        -0.014152      0.022528      0.002761
