38
# total energy = -101.82562904 eVAu     12.76708     14.34324     11.85202         0.016807     -0.062866      0.030974
Au     12.71636     11.80159     12.90094         0.019040      0.004958     -0.007923
Au     11.39256     13.81205     14.43678         0.018177      0.016114      0.027564
Au     17.44095     12.12517     13.33996         0.031401     -0.039166     -0.020133
Au     15.07630     10.91949     14.10037         0.013156     -0.016140     -0.004106
Au     19.84821     15.46154     12.86164        -0.049259     -0.002687      0.018796
Au     16.61520     14.82231     14.04530        -0.120728      0.137126      0.067204
Au     15.35113     15.55705     10.99160         0.017773     -0.049595      0.021433
Au     17.71987     14.20657     11.54957        -0.020623     -0.024845     -0.058860
Au     15.15536     12.91424     11.94582         0.015885      0.010767      0.029889
Au     12.94938     16.96089     11.05746        -0.026567      0.063845     -0.064565
Au     11.29305     16.31820     13.33034        -0.035779     -0.022797      0.026643
Au     14.10822     16.14624     13.68192         0.100068      0.015078      0.087789
Au     12.71687     18.67992     13.22734         0.030138      0.026611      0.041876
Au     17.51827     19.57286     12.84707        -0.040633     -0.000679     -0.045619
Au     14.97617     20.06232     13.94170        -0.048104     -0.019580     -0.046299
Au     17.72695     16.96558     11.73536        -0.004090     -0.006786     -0.002993
Au     15.25741     18.29848     11.76057         0.019093      0.022537      0.031986
Au     19.86845     18.18514     13.23838         0.039320     -0.011831     -0.021114
Au     14.21408     13.52600     14.80931         0.068391      0.049955     -0.019395
Au     12.41346     13.44622     17.03117        -0.004455      0.025942     -0.029910
Au     11.76193     11.19651     15.44576        -0.011036      0.015330      0.006735
Au     13.32013     15.59290     18.47471        -0.047548     -0.018408      0.001218
Au     17.80218     14.68019     17.21218        -0.005808     -0.033763     -0.039280
Au     15.20875     13.47041     18.04985        -0.010493     -0.052519     -0.050075
Au     14.22773     11.26245     16.73668         0.022812      0.001671     -0.004878
Au     16.76958     12.33701     16.04021        -0.014035      0.016936     -0.029403
Au     19.04304     13.73335     14.90805         0.025797     -0.035403      0.052316
Au     12.16175     16.12891     15.98393        -0.001653      0.020379      0.003269
Au     13.29259     18.71373     15.90272         0.036801     -0.044463     -0.021390
Au     17.47704     17.50580     17.39226        -0.008508      0.028974     -0.026255
Au     18.53124     19.21197     15.41909        -0.003350     -0.015014      0.060507
Au     15.97357     19.70643     16.47573        -0.005761     -0.034927      0.057159
Au     14.65888     17.98514     18.15891        -0.003678      0.038299     -0.041546
Au     19.18484     16.44557     15.43566        -0.001534     -0.013597      0.001641
Au     16.41325     17.56177     14.51005        -0.058562     -0.073104      0.015621
Au     16.12430     15.82657     19.11284         0.029502      0.040341      0.077457
Au     15.13874     15.77928     16.29875         0.018044      0.043306     -0.126333
