38
# total energy = -101.47953344 eVAu     12.24604     14.92152     11.03543        -0.067960     -0.002074      0.040124
Au     12.44185     13.08856     13.31304        -0.074966     -0.162046      0.007359
Au     11.39501     15.65505     13.61650        -0.032116     -0.042028     -0.053858
Au     14.21624     13.02246     10.99301         0.059661     -0.003961      0.052188
Au     15.17765     12.07938     13.46084        -0.038536      0.104523      0.072703
Au     16.98078     15.74313     13.88738         0.050762     -0.030223      0.038017
Au     14.97659     15.83332     10.52147         0.034041      0.038990      0.079139
Au     14.40332     15.07757     13.13770        -0.056497     -0.038030     -0.050558
Au     19.26665     14.37245     12.55433        -0.021136      0.011956      0.027637
Au     17.67655     16.45906     11.26768        -0.053276      0.006292      0.002725
Au     16.73149     13.74873     11.74534        -0.082547      0.030796     -0.021587
Au     12.88254     17.45377     11.90433         0.024094     -0.007499      0.048510
Au     11.19230     18.41973     14.02528         0.079500     -0.037607      0.024120
Au     13.66811     19.48546     13.64826        -0.020541     -0.007174     -0.007953
Au     18.15654     18.87911     12.62014         0.050608     -0.006709     -0.071489
Au     20.09780     16.95413     12.87657        -0.042187      0.092554      0.038761
Au     16.06975     20.60726     13.13037         0.015501      0.013812      0.137092
Au     15.49908     18.27879     11.71382         0.037295     -0.026913      0.035640
Au     13.93111     13.22543     17.74302        -0.003195     -0.007791      0.067788
Au     11.95721     14.14203     15.93920         0.042361      0.044307     -0.064396
Au     13.23648     11.66887     15.50542         0.016025      0.016431     -0.004663
Au     13.10956     15.99250     17.83716         0.050437     -0.026558     -0.080073
Au     17.74038     12.92832     14.35367        -0.031222      0.041114      0.013142
Au     19.36179     15.28215     15.23917        -0.010981      0.030722      0.058647
Au     15.24367     14.65017     15.74929        -0.068064     -0.002030      0.004387
Au     15.72131     15.30397     18.51879        -0.030135     -0.000263     -0.110724
Au     15.92613     11.88275     16.18210        -0.040674      0.039658     -0.014902
Au     17.67532     13.86637     17.04481         0.018025      0.093484     -0.040197
Au     13.72008     16.84717     15.09948         0.045615      0.053757     -0.058957
Au     11.02717     16.73471     16.20985         0.035998     -0.104420      0.032313
Au     12.69543     18.99405     16.47289        -0.066219     -0.021654      0.015310
Au     17.40448     19.40679     17.11250        -0.001133      0.012931     -0.088662
Au     18.21081     20.76873     14.78100         0.191002      0.086621      0.006028
Au     15.05388     20.36695     15.95871        -0.007290      0.024134     -0.023643
Au     15.07672     17.95426     17.68561         0.058472     -0.027138     -0.125069
Au     17.63806     16.65852     17.05807        -0.068555     -0.099649     -0.001907
Au     16.22379     18.15655     14.76168        -0.055163     -0.054308     -0.004624
Au     19.11494     18.11331     15.19546         0.062997     -0.034005      0.021632
