38
# total energy = -101.03693527 eVAu     13.96804     14.10763     11.66610         0.014495     -0.046450     -0.088622
Au     12.87739     11.96152     12.99688         0.069176      0.089710      0.116046
Au     11.71343     14.67952     13.44362         0.075272     -0.048508      0.021928
Au     15.63382     12.10813     12.90812        -0.020889     -0.051334     -0.075380
Au     19.23239     15.04018     12.97311         0.035013     -0.021048     -0.075248
Au     16.88493     14.24775     14.54863        -0.191359      0.106276      0.087094
Au     18.42919     12.36468     12.91841        -0.080214     -0.001950      0.099712
Au     16.85479     14.27529     11.53356         0.025631     -0.019305     -0.052343
Au     12.84586     16.73900     11.88101         0.080105     -0.042710      0.068732
Au     12.86294     19.23639     13.18214         0.051399     -0.016076     -0.061155
Au     17.66496     19.43053     13.11823        -0.028105     -0.121644      0.069053
Au     15.19724     16.23556     10.35042         0.010664      0.054319      0.096739
Au     15.24260     16.18689     13.27311         0.126103     -0.057153      0.209233
Au     17.58928     17.00166     11.62079         0.091558     -0.044660     -0.091035
Au     15.23055     18.66863     11.74623        -0.004455     -0.057913      0.025850
Au     19.95448     17.67808     12.96869        -0.106580      0.001925      0.088867
Au     14.10977     14.83109     18.55709        -0.068881     -0.008332     -0.061886
Au     14.07432     14.00439     14.79307         0.082808      0.031241      0.022347
Au     13.18767     12.45374     17.55589        -0.086225     -0.059881     -0.061516
Au     11.51800     12.50071     15.28174         0.032449     -0.010934      0.026836
Au     14.42111     11.22587     15.34714         0.024494      0.136129     -0.002053
Au     12.00542     14.93880     16.57229         0.042051     -0.072448      0.017324
Au     17.19123     11.53143     15.31852        -0.014843      0.023348     -0.077101
Au     17.96291     15.10882     17.14679         0.099218     -0.027550      0.151690
Au     15.86287     13.23692     17.07658        -0.010579     -0.083057      0.075478
Au     19.40760     13.43932     15.40703        -0.031434      0.065028     -0.083716
Au     12.77384     16.90971     14.78364        -0.346626      0.086663      0.043323
Au     13.13695     17.25542     17.67629         0.061909     -0.074312     -0.121826
Au     13.00101     19.44858     15.98235         0.006865      0.005014     -0.001905
Au     18.17189     17.89483     17.36847         0.032328      0.068776     -0.071746
Au     17.31933     20.19274     15.89024         0.150481     -0.008462      0.121025
Au     20.08271     16.14672     15.55032        -0.135619      0.024091     -0.057218
Au     15.42879     18.86717     17.41009         0.052265     -0.008514     -0.047473
Au     16.22720     16.54861     18.82220         0.029464      0.013656     -0.114016
Au     19.78146     18.99131     15.33106        -0.065611      0.063710     -0.047373
Au     17.57685     17.07067     14.66019        -0.111484      0.001527     -0.031200
Au     15.28349     18.79007     14.55745         0.051473      0.209168      0.009491
Au     15.33079     16.13567     16.18795         0.057680     -0.098337     -0.127957
