38
# total energy = -101.64678906 eVAu     12.20093     14.88005     11.06795        -0.026389      0.012092     -0.050333
Au     12.37082     12.99850     13.31399         0.012763     -0.033727     -0.013022
Au     11.41457     15.61368     13.62816        -0.099444     -0.038273      0.010684
Au     14.22042     13.03324     11.03467        -0.056173      0.005473     -0.036443
Au     15.16865     12.07945     13.46884        -0.014463      0.077937      0.061117
Au     16.96708     15.65123     13.93542        -0.095992      0.051789      0.008603
Au     14.98435     15.87627     10.56219        -0.029101     -0.002154      0.033739
Au     14.35519     15.03048     13.14557        -0.034057     -0.063263     -0.052145
Au     19.24281     14.43559     12.57521        -0.000687      0.032170      0.041622
Au     17.64565     16.48451     11.30218         0.010150      0.016631      0.067687
Au     16.73050     13.76325     11.71508         0.012300      0.030495      0.025628
Au     12.93727     17.42279     11.91053        -0.043079     -0.040293     -0.000438
Au     11.24835     18.37571     14.03241         0.012956     -0.037419     -0.000230
Au     13.69094     19.48128     13.61941         0.006184      0.093988     -0.039557
Au     18.14398     18.91344     12.59764         0.078652      0.051534      0.021986
Au     20.10393     17.03134     12.88299         0.041824     -0.022147     -0.013170
Au     16.12966     20.64101     13.30376         0.095637     -0.046187      0.022086
Au     15.51457     18.38020     11.67052         0.036053     -0.035132      0.133564
Au     13.89720     13.20084     17.78310        -0.026912     -0.008093      0.024894
Au     11.87750     14.09225     15.95810         0.144805     -0.003112     -0.071846
Au     13.22164     11.67207     15.52373        -0.012934     -0.000791     -0.003894
Au     13.13534     15.99135     17.77246         0.004493      0.005562      0.010723
Au     17.74301     12.91192     14.33055        -0.016854     -0.032491      0.041963
Au     19.37948     15.32581     15.26518         0.002223      0.010476     -0.010896
Au     15.14173     14.61787     15.74851        -0.044397     -0.058098      0.076071
Au     15.70695     15.29626     18.49219         0.017965     -0.045222     -0.053364
Au     15.90607     11.89725     16.17689         0.038543      0.061388      0.038363
Au     17.66736     13.90733     16.99148        -0.027070      0.009336     -0.021260
Au     13.73769     16.87291     15.06973        -0.069097      0.073164     -0.072856
Au     11.00453     16.67962     16.21250         0.001051     -0.020598     -0.007071
Au     12.65453     18.96771     16.49469         0.033949     -0.080375      0.001537
Au     17.40420     19.44606     17.00097         0.044956      0.017134     -0.073399
Au     18.45721     20.83969     14.74851         0.065648     -0.045421     -0.067276
Au     15.02507     20.36084     15.92047        -0.115140     -0.025455      0.125951
Au     15.11255     17.96033     17.60150        -0.034232     -0.041316     -0.018150
Au     17.64881     16.67082     17.12197         0.011233      0.086163     -0.116032
Au     16.24433     18.10555     14.71453        -0.010620      0.020790     -0.014354
Au     19.11177     18.11463     15.20578         0.085256      0.023445     -0.010484
