38
# total energy = -101.43215587 eVAu     14.02046     14.07029     11.59210        -0.064240      0.040266      0.059832
Au     12.91325     12.02819     13.06710         0.003295     -0.053671     -0.058910
Au     11.73413     14.61091     13.46576        -0.003214      0.062030      0.029070
Au     15.64066     12.06228     12.81686        -0.005147     -0.002559      0.109841
Au     19.24684     15.00596     12.88098         0.025623     -0.014488      0.089967
Au     16.86289     14.25219     14.61728         0.017702      0.066209     -0.041073
Au     18.38570     12.36587     12.92883         0.020999     -0.026538      0.049161
Au     16.87622     14.24488     11.48836         0.011482     -0.011123      0.015561
Au     12.88299     16.67748     11.96384        -0.018412     -0.050068     -0.016813
Au     12.90725     19.20016     13.18372         0.070797     -0.086937     -0.052684
Au     17.71376     19.38190     13.13849         0.079044      0.079027      0.000356
Au     15.23030     16.23652     10.38774        -0.081339      0.049984      0.052266
Au     15.22781     16.21361     13.36117        -0.068945     -0.021814     -0.011618
Au     17.65694     16.94742     11.52120        -0.022540      0.008848      0.064173
Au     15.30185     18.62051     11.80951        -0.026701     -0.022033      0.020085
Au     19.89855     17.64942     13.01565         0.096030     -0.026227     -0.012350
Au     14.10453     14.79358     18.49597        -0.024190      0.037389     -0.011785
Au     14.10727     14.02535     14.81657        -0.009153      0.003089     -0.027115
Au     13.12689     12.40043     17.56583         0.008455      0.017522     -0.066753
Au     11.46635     12.44293     15.30931         0.010759     -0.010241      0.079621
Au     14.43183     11.29122     15.34491         0.062835     -0.035568     -0.000809
Au     12.00648     14.88824     16.55597        -0.023584     -0.041139     -0.048009
Au     17.19162     11.54387     15.31447         0.007685      0.025356     -0.044852
Au     18.05558     15.02945     17.28167        -0.078094      0.017322     -0.049281
Au     15.90617     13.14647     17.18723        -0.008061     -0.013382     -0.030906
Au     19.39862     13.48133     15.36476         0.024736      0.032263     -0.041786
Au     12.25994     17.01209     14.79092        -0.082281     -0.001675     -0.002010
Au     13.17936     17.21949     17.54355        -0.069416      0.067653     -0.026272
Au     13.00192     19.47427     15.96135         0.065978     -0.124801      0.041092
Au     18.22986     17.86288     17.30288        -0.025476     -0.009334     -0.004085
Au     17.43761     20.27932     16.03926         0.059405     -0.027657      0.047081
Au     19.97458     16.20522     15.50837        -0.006532     -0.086636      0.014864
Au     15.46958     18.85406     17.33862        -0.032161     -0.085629     -0.018218
Au     16.22319     16.52178     18.76366         0.085061      0.037101     -0.049307
Au     19.79680     19.11191     15.28480        -0.002227      0.013554     -0.001984
Au     17.47561     17.09202     14.66903        -0.008098      0.002786     -0.062279
Au     15.34845     19.14335     14.54846        -0.031533      0.203082     -0.030308
Au     15.34530     16.09720     16.17924         0.041458     -0.011962      0.036236
