38
# total energy = -101.83965417 eVAu     12.79034     14.33024     11.88499         0.010639     -0.003071      0.007694
Au     12.74998     11.78795     12.96369         0.009292      0.008486      0.023081
Au     11.40419     13.81904     14.45138        -0.001911     -0.006212     -0.047106
Au     17.55056     12.17786     13.30423        -0.008970     -0.004184      0.002009
Au     15.17603     10.94336     14.06595        -0.000646     -0.022053     -0.005269
Au     19.69331     15.40163     12.91407        -0.007949      0.006876      0.002913
Au     16.66261     14.84401     14.02995         0.006496      0.075783      0.004656
Au     15.29902     15.55663     10.95297        -0.009461     -0.009479      0.026573
Au     17.65335     14.20732     11.43795         0.019218      0.010035     -0.029214
Au     15.18326     12.90917     11.96480        -0.047559      0.001749     -0.017382
Au     12.91038     16.96974     11.03798        -0.001462     -0.007132     -0.000576
Au     11.30678     16.30940     13.33746        -0.027200     -0.003443     -0.006594
Au     14.13625     16.15850     13.67225         0.066275     -0.013088      0.041929
Au     12.73470     18.66743     13.23158        -0.039077      0.063536     -0.014668
Au     17.50547     19.55572     12.83172         0.017343      0.003707      0.019838
Au     14.97958     20.07157     13.93817        -0.010562      0.001094     -0.041532
Au     17.68588     16.96474     11.70244         0.004884     -0.018399     -0.024727
Au     15.23007     18.30652     11.74439         0.000465      0.015122      0.003351
Au     19.84348     18.14171     13.24006        -0.025199     -0.032036      0.004977
Au     14.25549     13.54930     14.79630         0.031279      0.006632     -0.013964
Au     12.41224     13.45842     17.01355         0.035612     -0.019689      0.033542
Au     11.67627     11.21100     15.48181         0.007113     -0.014210     -0.003398
Au     13.32524     15.58730     18.45901        -0.018053     -0.011206      0.021195
Au     17.78957     14.66661     17.27334        -0.023952     -0.001872     -0.010790
Au     15.20389     13.46726     18.00732        -0.002922      0.000013     -0.010166
Au     14.20955     11.26463     16.66920        -0.011655      0.019230     -0.020292
Au     16.77518     12.33963     16.00693        -0.017036     -0.008856      0.042549
Au     19.06893     13.70173     15.03178         0.038756      0.002182      0.008974
Au     12.18188     16.16013     15.98092        -0.010042     -0.021656      0.001623
Au     13.31199     18.72522     15.89671         0.017670     -0.006039     -0.003593
Au     17.46848     17.50664     17.42436         0.000263      0.014594     -0.001518
Au     18.52737     19.19041     15.43227         0.005348      0.011313     -0.025131
Au     15.97844     19.71511     16.47826         0.017651     -0.011873      0.037813
Au     14.66886     17.97503     18.14173        -0.014347      0.058878      0.047480
Au     19.17743     16.43322     15.48449         0.015320     -0.022275      0.014541
Au     16.41135     17.57361     14.51333        -0.042175     -0.058380      0.003267
Au     16.10893     15.82539     19.15524         0.000390     -0.006541      0.000756
Au     15.16852     15.78994     16.28944         0.016165      0.002465     -0.072841
