38
# total energy = -102.06765662 eVAu     13.73716     11.91630     13.66155         0.012808     -0.022403     -0.028557
Au     13.90496     15.39277     10.52390         0.026495      0.011517      0.098648
Au     11.17222     15.91746     14.50723         0.049089      0.021034      0.027436
Au     12.57506     14.31616     12.65176        -0.017981     -0.026589     -0.076716
Au     16.59189     12.13633     14.13823        -0.012937     -0.005338      0.022258
Au     19.27856     15.95466     14.54055         0.024741     -0.112460     -0.050443
Au     16.67057     15.40523     10.65634         0.072760      0.002894     -0.062936
Au     15.10380     15.65559     13.27476        -0.021244     -0.016727      0.026256
Au     17.91821     14.20585     12.76547         0.049299      0.013123      0.080573
Au     15.37953     13.21411     11.83378         0.013316     -0.006716     -0.001713
Au     12.77837     17.15896     12.36583        -0.023218     -0.027357      0.000518
Au     12.05502     18.55224     14.59993        -0.021718     -0.038256      0.059089
Au     17.04333     19.70184     12.52400        -0.002595      0.050887      0.038383
Au     16.41741     17.73876     14.57899        -0.071756      0.030158     -0.019986
Au     14.37814     19.36155     13.37015        -0.072267      0.080621     -0.053914
Au     18.07563     17.11194     12.29339         0.015955     -0.052260      0.023257
Au     15.37455     17.77790     11.30594         0.001861      0.033840      0.003261
Au     18.99500     18.69894     14.54685         0.089162     -0.012005     -0.056603
Au     14.14053     14.05631     15.37234         0.116770      0.107928      0.007403
Au     12.77423     12.66237     17.36905         0.045182      0.011782      0.017987
Au     11.48660     13.08741     14.83076         0.010872     -0.029665      0.011412
Au     13.37538     15.26312     18.20840        -0.001344     -0.016544      0.067980
Au     10.80249     14.60904     17.02250         0.027526      0.033739     -0.006841
Au     18.18180     14.35116     17.74588         0.026489      0.009976      0.000210
Au     15.51601     13.44923     17.94509        -0.069141     -0.035009      0.003148
Au     16.70157     15.15629     15.56815        -0.137806      0.091518     -0.098008
Au     16.10646     16.18074     18.33057        -0.045891      0.011092      0.011789
Au     14.89173     11.31571     16.17473        -0.012878      0.042806      0.023115
Au     17.53184     11.71096     16.90354        -0.030626     -0.004959      0.014216
Au     18.93205     13.33310     15.20206        -0.025323      0.024321     -0.050003
Au     14.14452     19.59616     16.13153         0.035496      0.020133     -0.089762
Au     11.65034     17.23649     16.98735        -0.015502      0.011985      0.007686
Au     13.96316     17.96468     18.39674        -0.002468     -0.043315      0.038233
Au     18.93970     19.87925     17.01699         0.022351     -0.047871     -0.074724
Au     16.72873     20.46222     15.21503        -0.025442      0.046987      0.052991
Au     16.42820     18.92376     17.59049         0.043073      0.002508      0.094142
Au     18.46709     17.06574     16.98105        -0.035167      0.014001      0.041362
Au     14.18370     16.79490     15.79016        -0.037940     -0.175376     -0.101146
