38
# total energy = -100.98243225 eVAu     12.25907     14.97685     11.00706         0.058863     -0.065009      0.040672
Au     12.35414     13.01646     13.18657         0.123885      0.114747      0.083055
Au     11.26988     15.66649     13.53097         0.077233      0.002074     -0.007577
Au     14.19989     12.97408     10.96618        -0.035989      0.089002     -0.004981
Au     15.10637     12.34187     13.59950         0.053918     -0.135454     -0.089292
Au     17.12346     15.91047     13.79622        -0.097421      0.075611      0.081142
Au     14.97818     15.74704     10.40077        -0.016535      0.025043      0.082802
Au     14.39544     15.11669     13.06421        -0.027512      0.086311      0.215975
Au     19.30577     14.24199     12.50844        -0.009089      0.109710      0.061178
Au     17.77039     16.39504     11.08638        -0.043870     -0.001358      0.153991
Au     16.68818     13.83973     11.78156         0.004555     -0.093969     -0.005682
Au     12.83824     17.49509     11.98869        -0.023492      0.003110     -0.038754
Au     11.14722     18.44201     14.08483         0.003880     -0.045182      0.025613
Au     13.63702     19.53987     13.77165        -0.011185     -0.011313     -0.099613
Au     18.13803     18.83315     12.61960         0.139291     -0.015553      0.046231
Au     19.99905     16.85310     12.93835        -0.024112      0.021187     -0.020014
Au     15.99491     20.55433     12.92456         0.053244     -0.047992      0.074667
Au     15.53975     17.89166     12.04161        -0.071390      0.219150     -0.158509
Au     13.98140     13.22330     17.79379         0.043736     -0.009845     -0.099184
Au     12.40780     14.29516     15.68198        -0.224042     -0.031937      0.101924
Au     13.23780     11.67102     15.53182         0.055083      0.020085      0.017470
Au     13.15718     15.97015     17.82875        -0.059380     -0.012140      0.077055
Au     17.66864     13.09855     14.43253         0.042806     -0.120572     -0.019003
Au     19.44948     15.21019     15.29076        -0.103659      0.047632     -0.090731
Au     15.36658     14.71559     15.68638        -0.075436      0.014670     -0.037991
Au     15.73993     15.28800     18.53312        -0.050046     -0.024458     -0.059613
Au     15.95322     11.88324     16.28833        -0.060040      0.074915     -0.051755
Au     17.76674     13.80048     17.17443        -0.074531      0.015070     -0.057899
Au     13.66979     16.91131     15.03390         0.046262     -0.223595     -0.066360
Au     11.04912     16.69430     16.23889         0.084653      0.078074     -0.084970
Au     12.69155     19.08806     16.50064         0.020798     -0.052507     -0.053413
Au     17.45543     19.29106     17.27856        -0.000671      0.080624     -0.154707
Au     17.90985     20.66782     14.88285         0.011031     -0.048758     -0.035096
Au     15.09186     20.51952     16.03611        -0.051651     -0.090854      0.005970
Au     15.05309     17.93343     17.53072         0.015913      0.025485      0.202444
Au     17.46154     16.53838     16.79200         0.102026      0.054952      0.114882
Au     16.15212     18.27437     14.82619         0.111793     -0.139905     -0.057586
Au     19.13853     18.11328     15.24046         0.011084      0.012948     -0.092342
