38
# total energy = -101.61305207 eVAu     13.96657     14.03015     11.64742         0.058916      0.008158      0.051409
Au     12.89680     11.94013     13.09811         0.002920     -0.001811     -0.010960
Au     11.66574     14.53892     13.60077         0.002638      0.001408     -0.013923
Au     15.64340     12.06415     12.87859         0.014229      0.035617     -0.012640
Au     19.34271     14.98510     12.89725        -0.051298     -0.016092     -0.024621
Au     16.89838     14.33472     14.53434         0.047149     -0.045640     -0.015287
Au     18.40726     12.36608     12.89893        -0.010432      0.033204      0.013528
Au     16.86410     14.24950     11.51429        -0.021360     -0.007566      0.028192
Au     12.70062     16.55133     12.00328        -0.009292     -0.020167      0.000035
Au     13.05292     19.04328     13.15586         0.001731     -0.005058      0.004501
Au     17.87175     19.49138     13.22955         0.003171      0.009403      0.091992
Au     15.17119     16.28908     10.58063        -0.041539      0.030677     -0.020808
Au     15.05279     16.21210     13.42097        -0.051031      0.018891     -0.051527
Au     17.69045     16.92528     11.62463        -0.024312     -0.000819     -0.023668
Au     15.49821     18.67700     11.97144         0.058119     -0.039731      0.000494
Au     19.99301     17.63765     13.01375        -0.005768      0.007424      0.021615
Au     14.08250     14.84114     18.45110        -0.046980      0.090438     -0.038592
Au     14.12309     13.93647     14.83791        -0.000946     -0.023635     -0.019909
Au     13.13412     12.43134     17.51726         0.010215     -0.041766     -0.033401
Au     11.42286     12.32687     15.33210        -0.028479     -0.032192      0.052066
Au     14.48966     11.20638     15.35714         0.009629      0.000377      0.025977
Au     11.92693     14.82787     16.48646         0.035219      0.073494     -0.007984
Au     17.23583     11.62391     15.31442        -0.028022      0.030189     -0.005782
Au     18.04629     14.94984     17.24938        -0.003460      0.031218     -0.017440
Au     15.88905     13.14039     17.19631         0.011991     -0.007915     -0.016439
Au     19.42042     13.45714     15.34249        -0.010652     -0.002803     -0.036046
Au     11.96188     17.06494     14.77434         0.035390     -0.088894     -0.018215
Au     13.07638     17.18862     17.39429         0.036543     -0.041665      0.053049
Au     13.05096     19.43551     15.88310        -0.021472      0.030785     -0.023333
Au     18.25733     17.78315     17.21800        -0.017413     -0.034255     -0.010750
Au     17.54678     20.27414     16.13113        -0.022573      0.000671     -0.056333
Au     19.93026     16.18353     15.46644         0.001261      0.024342      0.030752
Au     15.46679     18.75378     17.14169         0.014078     -0.022306     -0.000610
Au     16.28056     16.51543     18.73552        -0.042481      0.002850     -0.091930
Au     19.86369     19.10874     15.28493         0.085149     -0.036219      0.023859
Au     17.37172     17.15542     14.57219         0.017614      0.026579     -0.025399
Au     15.38190     19.89745     14.47920        -0.000129     -0.009290      0.011592
Au     15.36221     16.04614     16.17019        -0.008325      0.022098      0.166537
