38
# total energy = -101.61242605 eVAu     13.96812     14.03074     11.64714         0.053032      0.020088      0.042797
Au     12.89694     11.94382     13.09473        -0.004878     -0.002123      0.005979
Au     11.66583     14.54560     13.59699         0.011498     -0.012681     -0.012009
Au     15.64367     12.06660     12.87917         0.013321      0.023974     -0.009473
Au     19.33749     14.98392     12.89772        -0.035084      0.003852     -0.013626
Au     16.89956     14.33041     14.53779         0.023791     -0.008452     -0.013529
Au     18.40776     12.36502     12.89844        -0.009062      0.021307      0.022268
Au     16.86462     14.24742     11.51497        -0.020384     -0.003748      0.021841
Au     12.70646     16.55580     11.99909        -0.008608     -0.020590      0.011396
Au     13.04681     19.04555     13.15871         0.013303     -0.012467      0.002789
Au     17.86900     19.48694     13.22080         0.001352      0.017785      0.091111
Au     15.17525     16.28441     10.57346        -0.049211      0.028122     -0.022508
Au     15.05771     16.21301     13.41677        -0.036477      0.007347     -0.015792
Au     17.68801     16.92471     11.62547        -0.016168      0.000472     -0.024826
Au     15.48987     18.67260     11.96476         0.050988     -0.027215      0.013782
Au     19.99346     17.63722     13.01453        -0.006295     -0.012388      0.012981
Au     14.08669     14.84298     18.45101        -0.050855      0.041364     -0.031396
Au     14.12434     13.94126     14.83616        -0.004726     -0.018836     -0.017206
Au     13.13539     12.42964     17.51874         0.011928     -0.020553     -0.034395
Au     11.42542     12.33111     15.33190        -0.019465     -0.026963      0.042638
Au     14.48853     11.20886     15.35631         0.006169      0.005969      0.022216
Au     11.92831     14.83178     16.48438         0.031171      0.035926     -0.000202
Au     17.23626     11.62230     15.31544        -0.022678      0.018404     -0.013040
Au     18.04310     14.95146     17.24796        -0.000045      0.025149     -0.012249
Au     15.89003     13.13668     17.19579         0.001970      0.001404     -0.009223
Au     19.42041     13.45758     15.34484        -0.004027     -0.002799     -0.040237
Au     11.95267     17.06606     14.77781         0.051675     -0.065909     -0.032188
Au     13.07611     17.18240     17.40041         0.028742      0.024781      0.028376
Au     13.05269     19.43253     15.88391        -0.015559      0.010172     -0.000269
Au     18.25607     17.78438     17.21885        -0.003171     -0.024135     -0.014088
Au     17.54495     20.27520     16.13665        -0.012074      0.000794     -0.058360
Au     19.92983     16.18557     15.47133         0.003228      0.017048      0.012578
Au     15.46705     18.75169     17.14891        -0.000877     -0.004430     -0.008719
Au     16.28247     16.51627     18.73682        -0.036029      0.002031     -0.062024
Au     19.86064     19.11210     15.27969         0.070012     -0.030904      0.037588
Au     17.37497     17.15693     14.57293         0.000558      0.004753     -0.020089
Au     15.38704     19.88272     14.48099        -0.018046     -0.013769     -0.000010
Au     15.36357     16.05078     16.17404         0.000982     -0.002781      0.097117
