38
# total energy = -101.69619433 eVAu     13.97806     14.01094     11.66062        -0.002978      0.030829      0.005076
Au     12.89216     11.91680     13.14919         0.015724      0.007765     -0.002813
Au     11.64335     14.46470     13.60947        -0.034440     -0.017130      0.012605
Au     15.63390     12.05879     12.88141         0.016485      0.000880      0.010597
Au     19.28981     15.00942     12.87415         0.057149      0.038520      0.019309
Au     16.86163     14.36889     14.46898        -0.023963      0.050463      0.008130
Au     18.38125     12.39068     12.86719         0.012515     -0.008096      0.018200
Au     16.81324     14.26139     11.49318        -0.009568      0.004163     -0.040210
Au     12.55564     16.44893     11.91564        -0.011161     -0.037165     -0.005031
Au     13.18320     18.89751     13.09604         0.039164     -0.022424      0.010700
Au     17.95304     19.58351     13.36997         0.042005      0.027259     -0.003170
Au     15.11554     16.34901     10.64214        -0.006266      0.001984      0.006346
Au     14.85464     16.31888     13.46446         0.025884     -0.013646      0.024053
Au     17.73033     16.90611     11.51473         0.015082      0.003471      0.001906
Au     15.68626     18.72448     11.97676         0.018252      0.010298      0.019438
Au     19.91977     17.67399     13.08849        -0.010181     -0.054914     -0.034016
Au     14.05681     14.84676     18.45054        -0.024133     -0.008816     -0.019051
Au     14.12375     13.92489     14.83175         0.002618      0.033924     -0.002403
Au     13.12941     12.38241     17.54797        -0.005955      0.023269      0.003123
Au     11.40547     12.31031     15.38742        -0.000328     -0.014624      0.029110
Au     14.53113     11.20874     15.39042        -0.055166      0.003364     -0.000998
Au     11.95957     14.82577     16.51622        -0.024471     -0.013971     -0.023517
Au     17.25640     11.68948     15.32749         0.011639      0.005522     -0.025459
Au     18.01205     14.93086     17.23105         0.011866      0.047837      0.004865
Au     15.86642     13.15018     17.21188        -0.006995     -0.014186     -0.007591
Au     19.41412     13.50195     15.29415        -0.001757     -0.023902     -0.008353
Au     12.01261     16.98595     14.74499         0.031695      0.020888      0.041042
Au     13.10558     17.21298     17.41084         0.003504     -0.001432     -0.006013
Au     13.04555     19.40045     15.81575         0.003823     -0.004339     -0.033493
Au     18.23516     17.74767     17.17216        -0.023218     -0.020128      0.015307
Au     17.62356     20.24614     16.13315         0.002827      0.026074      0.025583
Au     19.92510     16.19834     15.50079        -0.032371     -0.000845     -0.037861
Au     15.48214     18.78313     17.12117        -0.021673     -0.015162     -0.003544
Au     16.23489     16.53594     18.70351         0.024525     -0.010992     -0.003295
Au     20.03984     19.09314     15.42156        -0.048919      0.003983     -0.008606
Au     17.31609     17.15072     14.45956        -0.017496     -0.036503      0.000170
Au     15.41005     19.92248     14.49910        -0.033701     -0.007930     -0.015062
Au     15.35960     16.05173     16.16156         0.059984     -0.014290      0.024927
