38
# total energy = -101.77815607 eVAu     13.76795     11.86700     13.63313         0.009235      0.010932      0.030098
Au     13.97248     15.45273     10.57810        -0.003946     -0.031514     -0.023407
Au     11.50283     15.86416     14.56699        -0.161279      0.020754     -0.022269
Au     12.63454     14.23455     12.58215        -0.005019      0.026608      0.026486
Au     16.52673     12.27966     14.21051         0.029273     -0.051339     -0.021092
Au     19.26601     16.07015     14.53833         0.008652      0.030358      0.021988
Au     16.72958     15.38934     10.55356        -0.007075      0.010769      0.003863
Au     15.27636     15.88395     13.32198         0.008811     -0.030169     -0.038924
Au     17.90486     14.28613     12.80466        -0.016709      0.003580      0.001885
Au     15.36991     13.31688     11.87806        -0.012247      0.006712      0.034755
Au     12.78526     17.14503     12.39528         0.029766     -0.033427      0.030905
Au     11.92272     18.59148     14.57528        -0.014177     -0.034266     -0.042615
Au     17.02363     19.67301     12.60919         0.027553      0.050433      0.009453
Au     16.95480     17.82947     14.77453        -0.083081     -0.018648     -0.009266
Au     14.45312     19.10064     13.57947        -0.015922      0.033577      0.003974
Au     18.10122     17.09465     12.15230        -0.004200     -0.035012      0.017355
Au     15.41211     17.81358     11.24691        -0.024684      0.036444      0.014325
Au     19.47366     18.81159     13.85325         0.010538      0.002598      0.032520
Au     14.11980     14.12160     15.29704        -0.013807      0.073871      0.005974
Au     12.68417     12.68377     17.36602         0.035644     -0.018203     -0.005487
Au     11.54497     13.05948     14.86087        -0.059642     -0.017843     -0.015087
Au     13.33474     15.26774     18.17558        -0.041607     -0.070329      0.054421
Au     10.78693     14.72164     17.02296         0.048948     -0.055507     -0.044142
Au     18.06852     14.25039     17.86534         0.057506     -0.021751      0.055484
Au     15.37272     13.37265     17.93410         0.043389      0.025000      0.043186
Au     16.67625     15.14307     15.61525        -0.027204     -0.019050     -0.024201
Au     16.03360     16.08592     18.46386        -0.025202      0.019814      0.009236
Au     14.79273     11.25066     16.18976        -0.011249      0.054557     -0.032719
Au     17.42563     11.72464     16.85820        -0.025612      0.001650     -0.008337
Au     18.90604     13.44708     15.27502         0.030674     -0.044377     -0.040958
Au     13.79349     19.54357     16.35576         0.081489      0.040183     -0.071229
Au     11.69594     17.32377     17.02717         0.083508     -0.014972     -0.058448
Au     13.93902     17.90238     18.58899         0.003487      0.028718      0.035132
Au     18.74874     19.60651     16.38117         0.014160     -0.004941      0.050248
Au     16.24591     20.51168     15.27659         0.026831     -0.001223     -0.043764
Au     16.32229     18.80286     17.53511         0.013974     -0.050862      0.011153
Au     18.41590     16.91752     17.18011         0.048041      0.069225     -0.028825
Au     14.41041     16.87431     15.79845        -0.058816      0.007650      0.038326
