38
# total energy = -101.81915897 eVAu     12.76458     14.36228     11.85256         0.031641     -0.005610      0.007909
Au     12.70387     11.80915     12.84793        -0.004305      0.014616      0.016705
Au     11.40413     13.81000     14.44116        -0.015716      0.013845     -0.035101
Au     17.37713     12.06149     13.35574         0.032139     -0.024025     -0.015099
Au     14.99835     10.87756     14.12529         0.047728      0.031464     -0.014928
Au     19.93105     15.49974     12.83431        -0.044475     -0.014650      0.016728
Au     16.57464     14.85103     14.06597         0.004913      0.038811      0.001601
Au     15.38922     15.53614     11.05436        -0.030355      0.046935     -0.027892
Au     17.76483     14.18085     11.63047        -0.016910      0.002648      0.001056
Au     15.14886     12.91172     11.96360         0.006832     -0.010249     -0.001372
Au     12.97394     16.98423     11.04852         0.011417     -0.037893      0.009184
Au     11.27825     16.31493     13.33002        -0.008177      0.000161     -0.008891
Au     14.08453     16.17221     13.70378         0.038303     -0.003874      0.041212
Au     12.69184     18.68581     13.23249         0.008733     -0.005771     -0.034684
Au     17.51882     19.57192     12.84441         0.044482      0.031945      0.006926
Au     14.95498     20.05543     13.93600         0.010585      0.046057      0.029081
Au     17.76313     16.95436     11.76214        -0.030952     -0.017418     -0.003906
Au     15.28423     18.28742     11.78285        -0.038182     -0.040693     -0.048283
Au     19.90222     18.22678     13.23058        -0.011633     -0.021385      0.002394
Au     14.22049     13.51996     14.80553         0.005958      0.026897      0.000931
Au     12.41957     13.44722     17.01833         0.013594      0.005670      0.040951
Au     11.83360     11.19639     15.41758        -0.006256     -0.022775     -0.000145
Au     13.30824     15.58895     18.48479         0.000271     -0.005957      0.007495
Au     17.78618     14.67952     17.13747        -0.001224      0.034371      0.054425
Au     15.20948     13.48851     18.05523         0.013704     -0.000990     -0.028943
Au     14.25558     11.25469     16.78434        -0.013692      0.018921     -0.004482
Au     16.75195     12.33870     16.03083         0.004965     -0.010143     -0.005233
Au     19.02019     13.73231     14.81573        -0.012753     -0.003011      0.007836
Au     12.12838     16.12258     15.99569        -0.028884     -0.022392      0.010424
Au     13.31232     18.66009     15.88683        -0.004255      0.031941      0.009804
Au     17.47936     17.50204     17.35719         0.002522     -0.052019      0.046803
Au     18.53346     19.20895     15.42198         0.031193      0.035997     -0.028285
Au     15.96055     19.69567     16.49080        -0.009257      0.051354     -0.013696
Au     14.63687     17.99013     18.17421         0.029315     -0.010179      0.012163
Au     19.19279     16.44274     15.39018        -0.021491     -0.014929      0.017941
Au     16.39977     17.58578     14.51927        -0.038992     -0.080449      0.003892
Au     16.14886     15.84891     19.10844        -0.000037     -0.036219     -0.020723
Au     15.10860     15.80693     16.30537        -0.000748      0.008996     -0.053799
