38
# total energy = -101.88793138 eVAu     13.75853     11.90734     13.64909        -0.001425     -0.018082      0.011537
Au     13.92698     15.41202     10.54966        -0.001273     -0.010818      0.002946
Au     11.20591     15.89231     14.48533         0.029049     -0.025693     -0.000282
Au     12.61523     14.28473     12.63243        -0.008873      0.035666     -0.019732
Au     16.57993     12.17733     14.15328         0.002608      0.012269     -0.026441
Au     19.25681     16.03953     14.56632         0.012930      0.030411     -0.041269
Au     16.68688     15.39872     10.59161         0.019224      0.007503      0.022539
Au     15.25333     15.80978     13.32776        -0.000337      0.014044     -0.046983
Au     17.89393     14.27320     12.80760         0.002144     -0.005814     -0.016255
Au     15.36075     13.28602     11.87134         0.026811      0.020704      0.011513
Au     12.81032     17.13141     12.40602        -0.019638     -0.041404     -0.010122
Au     11.95139     18.55631     14.55201        -0.024769      0.020568      0.017278
Au     17.03479     19.71471     12.57642        -0.010362     -0.000411     -0.002651
Au     16.86213     17.79570     14.75780        -0.095990     -0.021377     -0.019612
Au     14.43299     19.19755     13.52825         0.040455      0.023701     -0.023638
Au     18.06694     17.10622     12.20202         0.023003     -0.044534      0.005974
Au     15.38379     17.80602     11.29633         0.009245      0.014328     -0.000637
Au     19.36266     18.78588     14.03189        -0.017089     -0.012075      0.034144
Au     14.08861     14.15407     15.31207         0.028492     -0.015280      0.029172
Au     12.74058     12.68682     17.34639        -0.040684     -0.013203      0.003881
Au     11.50569     13.06999     14.84183        -0.015338      0.007495      0.013619
Au     13.32457     15.23600     18.27137         0.013549      0.055341     -0.014306
Au     10.80161     14.67513     17.00681         0.017434     -0.031367     -0.011372
Au     18.12734     14.27364     17.85794        -0.024054      0.008782     -0.022053
Au     15.42533     13.40049     17.96244         0.022514      0.027209      0.014103
Au     16.68516     15.11030     15.63285        -0.048316      0.018613     -0.001346
Au     16.04402     16.10877     18.45341         0.039842     -0.013028     -0.026900
Au     14.82949     11.32259     16.16325        -0.000920     -0.035923     -0.001208
Au     17.45878     11.73972     16.85138         0.016039      0.005660      0.020623
Au     18.92559     13.41679     15.24244        -0.001845     -0.036541      0.004023
Au     13.88705     19.56592     16.25865         0.041601     -0.018183     -0.006929
Au     11.75319     17.24464     16.94273        -0.002618      0.012721      0.023214
Au     13.93465     17.91442     18.52535        -0.000865     -0.002694      0.005964
Au     18.82665     19.68445     16.56384        -0.017664      0.011132      0.024835
Au     16.38449     20.51397     15.22365         0.027255     -0.009882      0.016472
Au     16.34766     18.80835     17.50572         0.005270      0.001337      0.023816
Au     18.44932     16.95503     17.15329        -0.012289      0.005416     -0.006542
Au     14.41249     16.85928     15.82048        -0.033116      0.023408      0.012625
