38
# total energy = -100.79137426 eVAu     12.84150     14.37733     11.96276        -0.210262      0.298962     -0.325421
Au     12.72433     11.81961     12.68495        -0.133305     -0.322725      0.105183
Au     11.34085     13.81563     14.34985        -0.063489     -0.249274      0.107740
Au     17.44131     11.71346     13.28195         0.045431     -0.016947     -0.020738
Au     14.93156     10.86274     14.15028        -0.006195      0.019545      0.006327
Au     20.04569     15.47652     12.78680         0.051242      0.126888     -0.003052
Au     16.42966     14.89266     14.12823         1.095037     -0.571759     -0.511963
Au     15.43581     15.50393     11.29320        -0.212189     -0.026158     -0.736283
Au     17.84180     14.04709     11.79559        -0.025535      0.015576      0.124737
Au     15.22681     12.96871     12.22406         0.108444     -0.453829     -0.417891
Au     12.98289     16.95423     11.05214         0.045759      0.076236      0.086945
Au     11.27553     16.36970     13.33544         0.126055      0.088822     -0.075711
Au     14.11621     16.22974     13.75532        -1.153042      0.288040     -0.946650
Au     12.72837     18.78761     13.17366        -0.127782     -0.139742     -0.142603
Au     17.49789     19.63213     12.85035         0.201059     -0.061095      0.158486
Au     14.95886     20.19569     13.93742        -0.037688      0.128068     -0.032364
Au     17.62217     16.83060     12.18652         0.741286      0.144952     -0.411480
Au     15.27836     18.27162     11.87526        -0.224564      0.226571     -0.354093
Au     19.87568     18.22617     13.24118        -0.032560     -0.007087      0.011049
Au     14.13157     13.60297     14.85144        -0.535757     -0.569949      0.130786
Au     12.43371     13.42460     17.12537        -0.141230     -0.224127     -0.095576
Au     12.10067     11.28762     15.32493        -0.121331     -0.057113      0.040555
Au     13.30680     15.64268     18.49410         0.151722      0.080937     -0.008514
Au     17.65613     14.70934     16.93212         0.334880     -0.221925      0.653050
Au     15.19142     13.53640     17.93062         0.088911      0.191064      0.440521
Au     14.37954     11.22718     16.88836        -0.199084     -0.297317     -0.061966
Au     16.63899     12.46338     15.81032         0.315766     -0.529817      0.112991
Au     18.95285     13.64935     14.61706        -0.100694      0.042376     -0.068229
Au     12.26577     15.92336     15.91316        -0.724284      0.229406      0.317550
Au     13.61991     18.35537     15.72260        -0.495460      0.558743      0.274463
Au     17.41156     17.50822     17.29278         0.092800      0.112127      0.454825
Au     18.52023     19.26620     15.44684         0.036177     -0.003428     -0.260958
Au     15.97583     19.83174     16.52029         0.005270      0.113166      0.079389
Au     14.71315     18.07733     18.21412        -0.011452     -0.182505      0.151484
Au     18.79216     16.41193     15.15746         0.834215      0.109091     -0.170850
Au     16.27702     17.67273     14.58024         0.484657      1.041815     -0.043820
Au     16.14923     15.82094     19.09350        -0.016341      0.099333     -0.074281
Au     15.10301     15.87657     16.26172        -0.186467     -0.056921      1.506363
