38
# total energy = -101.84414652 eVAu     13.76777     11.89934     13.65598         0.007027     -0.008067     -0.018330
Au     13.96608     15.42614     10.56551        -0.040918      0.003081      0.017292
Au     11.30347     15.87726     14.51005        -0.018987      0.000721     -0.006625
Au     12.61352     14.25615     12.60138         0.009659      0.025014      0.007502
Au     16.57109     12.20412     14.17033        -0.005803      0.011183     -0.019689
Au     19.25707     16.07010     14.55886        -0.000977     -0.029534     -0.009052
Au     16.71632     15.40897     10.56221         0.005776     -0.011007      0.021309
Au     15.28457     15.87082     13.32080        -0.019032     -0.022563     -0.053792
Au     17.90769     14.27857     12.79636        -0.008392      0.001844      0.040089
Au     15.36687     13.32142     11.89889         0.007798     -0.006877     -0.011863
Au     12.80040     17.11622     12.41180         0.003952     -0.002244     -0.002755
Au     11.91979     18.57409     14.55229         0.035106     -0.010898      0.014898
Au     17.04954     19.69075     12.60780        -0.034314      0.022755     -0.025454
Au     16.90545     17.82043     14.75857         0.001298     -0.000552      0.026095
Au     14.43249     19.15289     13.54742         0.035345      0.021940      0.008513
Au     18.09976     17.09099     12.17370        -0.019065     -0.004428      0.015800
Au     15.39939     17.82940     11.26741        -0.012220     -0.019280      0.030371
Au     19.45340     18.80769     13.89719        -0.022076     -0.021945      0.033124
Au     14.09491     14.16513     15.30322        -0.010150     -0.051542      0.002633
Au     12.71931     12.67762     17.34809        -0.011433      0.039680      0.028042
Au     11.52273     13.05589     14.84887        -0.018751      0.025915     -0.012558
Au     13.32027     15.24733     18.26069         0.013309     -0.023627     -0.000758
Au     10.81515     14.69083     17.00330         0.001268      0.014858      0.006367
Au     18.09095     14.26092     17.86163         0.005386     -0.003802      0.006490
Au     15.39526     13.38583     17.97670        -0.004023      0.016276     -0.006023
Au     16.67328     15.14000     15.62006         0.004666     -0.046326      0.035477
Au     16.03652     16.08897     18.48302         0.004929      0.011060     -0.030232
Au     14.80410     11.29895     16.17734         0.038996     -0.014956     -0.011395
Au     17.42363     11.74024     16.85591         0.013209     -0.002986      0.005225
Au     18.90498     13.43149     15.25851         0.012433      0.023731     -0.041496
Au     13.84323     19.54185     16.30774         0.018781     -0.011861     -0.042012
Au     11.76178     17.28181     16.97891        -0.043304     -0.036916     -0.041244
Au     13.93677     17.90905     18.58457         0.031512      0.003033     -0.018834
Au     18.76868     19.62265     16.42219         0.007994      0.004118      0.072628
Au     16.30160     20.50961     15.25545         0.001169     -0.002585     -0.005883
Au     16.33669     18.78417     17.53776         0.000061      0.001601     -0.041464
Au     18.43374     16.92553     17.16803        -0.007677      0.045297      0.001032
Au     14.39729     16.86198     15.81252         0.017449      0.059889      0.026574
