38
# total energy = -101.88491810 eVAu     13.75799     11.90893     13.64854         0.006313     -0.039941      0.014015
Au     13.92611     15.41194     10.54846        -0.014612     -0.011536      0.022125
Au     11.20315     15.89423     14.48530         0.030402     -0.041165     -0.006390
Au     12.61566     14.28334     12.63470        -0.006692      0.069569     -0.046438
Au     16.57987     12.17613     14.15468         0.003853      0.018407     -0.041922
Au     19.25593     16.03635     14.56841         0.024298      0.066606     -0.059284
Au     16.68462     15.39792     10.59128         0.035128      0.007483      0.039830
Au     15.25162     15.80692     13.33028         0.008235      0.021197     -0.065232
Au     17.89388     14.27278     12.80854        -0.012076      0.000361     -0.036386
Au     15.35890     13.28329     11.86964         0.041738      0.033378      0.014687
Au     12.81135     17.13494     12.40641        -0.018519     -0.079127     -0.032821
Au     11.95378     18.55470     14.55094        -0.049858      0.032116      0.038818
Au     17.03513     19.71499     12.57543        -0.027157      0.004365     -0.000766
Au     16.86423     17.79575     14.75804        -0.119413     -0.028640     -0.013131
Au     14.42984     19.19764     13.52873         0.081825      0.035860     -0.034667
Au     18.06521     17.10915     12.20260         0.022542     -0.070996      0.000273
Au     15.38300     17.80431     11.29694         0.011806      0.021210      0.005529
Au     19.35922     18.78599     14.03626        -0.000175     -0.015238      0.030413
Au     14.08735     14.15395     15.31120         0.045472     -0.008108      0.037830
Au     12.74383     12.68742     17.34602        -0.072490     -0.020465      0.002417
Au     11.50662     13.06992     14.84084        -0.035364      0.011729      0.034793
Au     13.32410     15.23248     18.27095         0.015969      0.091016     -0.008909
Au     10.79998     14.67626     17.00770         0.023467     -0.049943     -0.020170
Au     18.12989     14.27375     17.85841        -0.042061      0.009519     -0.019912
Au     15.42500     13.39940     17.96047         0.048238      0.046280      0.027807
Au     16.68910     15.10897     15.63269        -0.082963      0.024368      0.003770
Au     16.04216     16.11066     18.45379         0.055842     -0.032165     -0.036673
Au     14.83026     11.32533     16.16318        -0.007514     -0.055683     -0.009788
Au     17.45898     11.73866     16.85032         0.029508      0.013802      0.025902
Au     18.92609     13.41825     15.24178         0.003521     -0.070438      0.016926
Au     13.88687     19.56806     16.25731         0.049354     -0.029871     -0.001235
Au     11.75216     17.24333     16.94109         0.010573      0.021036      0.031144
Au     13.93482     17.91512     18.52295        -0.013586     -0.013015      0.001513
Au     18.83000     19.68700     16.56854        -0.026088      0.006353      0.019627
Au     16.38692     20.51438     15.22185         0.021021     -0.014600      0.018641
Au     16.34800     18.80962     17.50452         0.008128     -0.000315      0.020287
Au     18.45051     16.95581     17.15240        -0.019380      0.005749      0.003128
Au     14.41341     16.85754     15.81985        -0.029287      0.040840      0.024252
