38
# total energy = -101.78755287 eVAu     12.13590     14.86004     11.05690         0.026807     -0.023106      0.031636
Au     12.32012     12.90576     13.29459         0.009984      0.063779     -0.074304
Au     11.34944     15.54540     13.62841        -0.051146      0.008553     -0.072957
Au     14.19256     13.03799     11.03376         0.015661      0.049702      0.033292
Au     15.15081     12.14046     13.51501         0.030207     -0.047417     -0.091243
Au     16.87940     15.60023     13.99030         0.059887     -0.005310      0.064239
Au     14.97821     15.91048     10.61167         0.019265     -0.040736     -0.011853
Au     14.28938     14.96271     13.15057        -0.095654     -0.068004     -0.218991
Au     19.21933     14.49849     12.62690        -0.049198     -0.037359     -0.015930
Au     17.63050     16.52185     11.38169         0.051239     -0.014906      0.045465
Au     16.72566     13.79529     11.71444        -0.070485     -0.008127      0.010798
Au     12.94911     17.38298     11.92528         0.029081      0.073793      0.006881
Au     11.30479     18.32555     14.02706         0.004198      0.024646      0.033015
Au     13.70950     19.55256     13.56550        -0.015550      0.012908      0.034255
Au     18.21418     18.96724     12.58864         0.012612      0.014517      0.010502
Au     20.14822     17.07427     12.87724         0.148326     -0.081423     -0.072599
Au     16.22961     20.64091     13.46103        -0.029358      0.029481      0.022049
Au     15.54870     18.41211     11.74162        -0.030255     -0.076299      0.073243
Au     13.84593     13.16563     17.84950         0.045174     -0.015719     -0.043858
Au     11.92892     14.06608     15.91930         0.041357     -0.025593      0.015515
Au     13.21344     11.65519     15.53824         0.063445     -0.052646      0.048101
Au     13.15290     15.99373     17.73317         0.002870      0.033772      0.045545
Au     17.74440     12.88678     14.32985         0.023427      0.015995     -0.006572
Au     19.38665     15.36696     15.27334        -0.034951      0.006428     -0.078700
Au     15.01123     14.59121     15.75813        -0.069076     -0.063115      0.144107
Au     15.72165     15.26874     18.43750         0.013980      0.063836      0.022310
Au     15.90579     11.93225     16.21272        -0.037927      0.013931      0.058526
Au     17.66008     13.96268     16.94085         0.031269     -0.041416     -0.002896
Au     13.72012     16.89952     14.96677        -0.081675      0.063212      0.042789
Au     10.98135     16.61140     16.21493        -0.048170      0.071276     -0.087615
Au     12.62967     18.89673     16.53182        -0.103940     -0.134468      0.032006
Au     17.42359     19.50009     16.86158        -0.060024     -0.009064     -0.048696
Au     18.70213     20.86195     14.67165         0.003251     -0.030586     -0.039759
Au     14.92108     20.34003     15.98504         0.021382      0.026362     -0.022743
Au     15.12746     17.93595     17.53078         0.089206      0.012730      0.091344
Au     17.65635     16.72302     17.08444        -0.040819      0.071926     -0.051413
Au     16.24505     18.09829     14.67449         0.061707      0.036433      0.043957
Au     19.19344     18.13255     15.19468         0.013891      0.082011      0.030554
