38
# total energy = -98.81093528 eVAu     13.74996     11.87571     13.66992        -0.144515     -0.890554     -0.716030
Au     14.04195     15.49596     10.63125        -0.922375     -0.197639     -0.952747
Au     11.94534     15.83364     14.75763        -0.901910      0.180325     -0.835021
Au     12.83898     14.26179     12.71280        -0.966590      0.024900     -0.624378
Au     16.35894     12.54852     14.36550         0.500542     -0.703623     -0.907738
Au     19.19157     16.12707     14.59605         0.966720     -0.417730     -0.258643
Au     16.66332     15.37683     10.65480         0.966525     -0.143039     -0.952952
Au     15.27888     15.83847     13.24209         0.159886      0.135007      1.389896
Au     17.74902     14.43390     12.97596         0.686771     -0.585491     -0.521147
Au     15.31863     13.38420     11.94897         0.304149     -1.074168     -0.481320
Au     12.90780     17.08689     12.47415        -0.925139      0.432362     -0.282579
Au     12.03864     18.54948     14.61960        -0.841135      0.519529     -0.650141
Au     17.02140     19.62075     12.74370        -0.156532      0.914004     -1.046301
Au     16.91064     17.74959     14.79873        -0.567202     -0.673033     -0.072539
Au     14.57001     18.87180     13.72329        -0.417723      0.603439     -0.515653
Au     17.94231     17.09265     12.26616         0.667787     -0.286219     -0.773348
Au     15.43128     17.78271     11.32596        -0.116274      0.886080     -0.817865
Au     19.33371     18.76233     13.85514         1.473039      0.404648     -0.437737
Au     14.09232     14.07438     15.30843         0.524689      0.812686     -0.163204
Au     12.70074     12.69066     17.30586        -0.262047     -0.686321      1.010613
Au     11.58417     13.04964     14.87481        -0.848975     -0.507693     -0.554459
Au     13.34796     15.28629     17.88096         0.371717     -0.170042      1.124890
Au     10.91883     14.68269     16.93647        -1.451297      0.264081      0.677169
Au     18.08349     14.25228     17.81571         0.587152      0.203104      1.071498
Au     15.41064     13.44018     17.73408        -0.367877      0.038368      1.118569
Au     16.68891     15.06756     15.62991        -0.833722      0.593528     -0.537471
Au     15.99579     16.09404     18.16986        -0.044899     -0.019682      1.031427
Au     14.70684     11.34819     16.13943         0.174394     -1.295939      0.382140
Au     17.34756     11.86656     16.77879         0.430002     -1.412362      0.516442
Au     18.88983     13.49103     15.31512         1.105567     -0.268806     -0.529794
Au     13.82007     19.56423     16.36197        -0.326318      1.023446      0.228249
Au     11.78874     17.38170     17.01567        -1.199121      0.177610      0.539139
Au     13.93572     17.89551     18.51993         0.080443      0.218857      1.178254
Au     18.56931     19.48077     16.25070         1.112166      0.871815      1.022734
Au     16.24665     20.42013     15.23967        -0.378298      1.385235      0.103421
Au     16.24131     18.71241     17.37597         0.183055      0.312583      1.048107
Au     18.37866     16.88886     17.06712         0.603645      0.009599      0.917731
Au     14.35563     16.93581     15.83889         0.773699     -0.678864     -0.729214
