38
# total energy = -101.60000696 eVAu     13.97187     14.03218     11.64646         0.039596      0.050337      0.021583
Au     12.89729     11.95277     13.08654        -0.024227     -0.007000      0.049124
Au     11.66605     14.56177     13.58785         0.033953     -0.046916     -0.005882
Au     15.64431     12.07255     12.88058         0.011655     -0.004821     -0.001789
Au     19.32484     14.98105     12.89885         0.004508      0.052233      0.011223
Au     16.90244     14.31997     14.54617        -0.033185      0.079947     -0.013690
Au     18.40900     12.36246     12.89726        -0.005822     -0.007934      0.043622
Au     16.86589     14.24237     11.51660        -0.019999      0.007892      0.004256
Au     12.72062     16.56664     11.98893        -0.005322     -0.022617      0.038152
Au     13.03199     19.05106     13.16562         0.044764     -0.032716     -0.005452
Au     17.86234     19.47618     13.19958        -0.002896      0.040420      0.087814
Au     15.18510     16.27311     10.55608        -0.067042      0.024455     -0.024163
Au     15.06962     16.21520     13.40659        -0.004681     -0.021800      0.069729
Au     17.68212     16.92332     11.62751         0.004130      0.002921     -0.029477
Au     15.46964     18.66193     11.94857         0.033066      0.006778      0.049191
Au     19.99455     17.63618     13.01643        -0.006826     -0.059774     -0.008495
Au     14.09684     14.84743     18.45078        -0.059873     -0.082548     -0.011959
Au     14.12735     13.95286     14.83191        -0.013225     -0.006505     -0.009811
Au     13.13846     12.42554     17.52235         0.016132      0.029560     -0.038550
Au     11.43162     12.34139     15.33141        -0.001032     -0.019002      0.019658
Au     14.48579     11.21488     15.35429        -0.001761      0.018609      0.012600
Au     11.93163     14.84124     16.47935         0.019096     -0.057328      0.017375
Au     17.23729     11.61839     15.31790        -0.009617     -0.010994     -0.031770
Au     18.03535     14.95537     17.24452         0.009145      0.008064      0.000804
Au     15.89242     13.12768     17.19454        -0.023390      0.025865      0.010103
Au     19.42038     13.45864     15.35053         0.012601     -0.002818     -0.050504
Au     11.93036     17.06879     14.78621         0.094289     -0.012895     -0.064482
Au     13.07547     17.16732     17.41522         0.008394      0.190775     -0.030039
Au     13.05686     19.42531     15.88586        -0.002219     -0.036889      0.053455
Au     18.25301     17.78736     17.22091         0.031136     -0.000231     -0.021669
Au     17.54052     20.27776     16.15004         0.012456      0.001900     -0.061155
Au     19.92879     16.19053     15.48318         0.007766      0.001152     -0.029362
Au     15.46770     18.74663     17.16639        -0.035242      0.042744     -0.029047
Au     16.28711     16.51829     18.73997        -0.021140     -0.000964      0.012360
Au     19.85325     19.12025     15.26700         0.035629     -0.017211      0.074427
Au     17.38285     17.16061     14.57472        -0.040285     -0.045688     -0.007378
Au     15.39952     19.84701     14.48533        -0.062050     -0.022134     -0.029690
Au     15.36689     16.06203     16.18338         0.021516     -0.064869     -0.071112
