38
# total energy = -101.23281687 eVAu     12.26740     14.95819     11.01962        -0.018544     -0.014695     -0.026962
Au     12.43271     13.07449     13.26038        -0.012330      0.001220     -0.014801
Au     11.30480     15.66529     13.52755         0.055647      0.013100      0.146034
Au     14.20062     13.00687     10.95960         0.045963     -0.019219      0.038139
Au     15.15138     12.22860     13.52912        -0.030433     -0.083613     -0.011425
Au     17.05009     15.88392     13.82961        -0.000236     -0.048355      0.061353
Au     14.97869     15.77667     10.47674        -0.003961      0.050530     -0.022062
Au     14.42217     15.12001     13.10784        -0.079204     -0.027883     -0.004556
Au     19.28289     14.28794     12.54316         0.067889      0.024163     -0.032067
Au     17.71659     16.39775     11.18164         0.017466      0.107754      0.003839
Au     16.70439     13.78652     11.78987        -0.052229     -0.047887     -0.097885
Au     12.81508     17.49850     11.94337         0.103980     -0.021603      0.002143
Au     11.14823     18.43747     14.07012         0.054513     -0.001191     -0.049546
Au     13.63934     19.52496     13.70520        -0.089307     -0.061555     -0.040787
Au     18.19286     18.86537     12.61674         0.039866     -0.132731      0.013116
Au     20.04512     16.86850     12.90626        -0.037775      0.149878      0.007831
Au     16.02374     20.52925     12.96786         0.019855      0.214239      0.080154
Au     15.51067     18.06340     11.90250        -0.031617     -0.014485     -0.129584
Au     13.98567     13.22961     17.75477        -0.068813     -0.025298     -0.004908
Au     12.22083     14.25091     15.78722        -0.118592     -0.042344      0.082994
Au     13.25638     11.67293     15.52192        -0.015464     -0.012217     -0.016449
Au     13.11780     15.96935     17.87560        -0.004181      0.034892     -0.065101
Au     17.70185     13.01436     14.40193         0.023035     -0.041018      0.017249
Au     19.38258     15.23196     15.24782        -0.003755      0.030022      0.039630
Au     15.33656     14.71117     15.69704        -0.044605     -0.055168      0.101021
Au     15.71050     15.28659     18.49942         0.101870      0.057999      0.024107
Au     15.93491     11.90832     16.23439        -0.007401     -0.073648     -0.021226
Au     17.72169     13.82099     17.12774        -0.010760      0.092983     -0.050776
Au     13.70152     16.86564     15.06414        -0.006681     -0.064864     -0.019198
Au     11.08263     16.73493     16.22082        -0.077556     -0.027720     -0.009744
Au     12.72084     19.03496     16.46044        -0.126734      0.019504      0.077366
Au     17.43985     19.32904     17.20089        -0.028456      0.093227      0.023155
Au     17.95762     20.68194     14.84309         0.187227      0.082541     -0.020343
Au     15.05831     20.42785     16.02585         0.078236      0.086325     -0.006513
Au     15.06461     17.94392     17.66081        -0.000189     -0.041873     -0.017586
Au     17.54070     16.59621     16.89569         0.017001     -0.090888      0.100134
Au     16.16212     18.22211     14.82408         0.095121     -0.085806     -0.078486
Au     19.16286     18.11662     15.21854        -0.038848     -0.024317     -0.078259
