38
# total energy = -101.83896389 eVAu     12.80027     14.33242     11.90085        -0.017959     -0.011705      0.003624
Au     12.76596     11.78347     12.99417        -0.001012     -0.008317      0.014170
Au     11.41057     13.81646     14.44401         0.011178      0.007404      0.006672
Au     17.58718     12.19981     13.29284        -0.053651      0.070862      0.031020
Au     15.21338     10.94030     14.05065         0.013386     -0.007892     -0.003005
Au     19.63253     15.37903     12.93456        -0.002056     -0.026660     -0.003493
Au     16.69678     14.86620     14.01899         0.035870     -0.017735     -0.015491
Au     15.27693     15.55310     10.95021         0.006280      0.014480      0.008086
Au     17.63506     14.20765     11.38904        -0.007307     -0.033555      0.009011
Au     15.18055     12.90447     11.96770         0.034282     -0.001800     -0.023538
Au     12.89488     16.97237     11.03342         0.016299      0.023441      0.043439
Au     11.30633     16.30680     13.33592         0.031477      0.026175      0.017035
Au     14.15468     16.16218     13.67265        -0.055832      0.020793     -0.027559
Au     12.72168     18.68136     13.22570        -0.003090      0.001946     -0.007014
Au     17.50527     19.54780     12.83115         0.000647      0.009845      0.005104
Au     14.98047     20.07546     13.92808        -0.003486     -0.006339      0.010016
Au     17.67244     16.96025     11.68071        -0.016163      0.011856     -0.027773
Au     15.22112     18.31353     11.73882        -0.024167     -0.013397     -0.013986
Au     19.82509     18.11579     13.24291        -0.003508     -0.033072     -0.003275
Au     14.28090     13.55802     14.78666         0.028330     -0.013728     -0.011184
Au     12.42327     13.45428     17.01349         0.002982      0.011251     -0.007995
Au     11.64594     11.21296     15.49463         0.003677     -0.010962     -0.004635
Au     13.32542     15.58385     18.46010         0.013585      0.032005     -0.025158
Au     17.77544     14.66051     17.28958        -0.000878      0.017506     -0.003385
Au     15.20009     13.47350     17.99059        -0.013979     -0.009977      0.008287
Au     14.19972     11.26946     16.63692        -0.005222     -0.003214     -0.016138
Au     16.77198     12.33566     16.00526         0.037949     -0.004733     -0.005457
Au     19.08896     13.68864     15.07814        -0.012658     -0.029346     -0.009810
Au     12.18486     16.16634     15.98098         0.002793     -0.053529     -0.010181
Au     13.32753     18.72388     15.89108         0.015142     -0.017951     -0.011739
Au     17.46638     17.51099     17.43551        -0.011153     -0.017198      0.018978
Au     18.52767     19.18270     15.42985        -0.004460      0.009896      0.002128
Au     15.98522     19.71628     16.48590        -0.002940     -0.007453     -0.008771
Au     14.66458     17.98585     18.15781         0.001859     -0.000600      0.009472
Au     19.18120     16.42247     15.50807         0.007055      0.002917      0.029891
Au     16.40221     17.57920     14.51642         0.008505      0.028255      0.004176
Au     16.10035     15.82568     19.17000        -0.012265      0.030656     -0.038724
Au     15.18193     15.79440     16.27863        -0.019511      0.009875      0.057202
