38
# total energy = -101.81129664 eVAu     12.80130     14.37817     11.86370        -0.028255     -0.046096     -0.012859
Au     12.68822     11.82346     12.80391         0.037661     -0.027211     -0.002756
Au     11.40800     13.80334     14.42878        -0.019800      0.032741      0.009055
Au     17.35129     11.94115     13.34884         0.034067      0.056792     -0.005898
Au     14.94551     10.87297     14.14615        -0.002353      0.026063      0.001964
Au     19.98418     15.52784     12.81772        -0.036710     -0.030024      0.008689
Au     16.54155     14.89939     14.08629        -0.063799      0.040891      0.026387
Au     15.41790     15.52778     11.08523        -0.002771      0.005124     -0.013541
Au     17.78922     14.14240     11.73225        -0.003544      0.028908     -0.030856
Au     15.16509     12.89977     11.97597         0.002631      0.002785      0.000540
Au     12.99383     16.97044     11.04378         0.010235      0.029801     -0.018923
Au     11.25934     16.32091     13.31760         0.010272     -0.012417      0.038416
Au     14.03775     16.20696     13.74167         0.092366     -0.019225      0.027316
Au     12.69873     18.69472     13.20519        -0.006943      0.012514      0.032964
Au     17.53578     19.58279     12.84521        -0.016233      0.003896     -0.008072
Au     14.94970     20.07706     13.93386         0.020965      0.012603      0.012381
Au     17.76814     16.93795     11.80311        -0.017461     -0.025644      0.003915
Au     15.29593     18.28030     11.78766        -0.002216     -0.000253     -0.010415
Au     19.92564     18.24536     13.22409        -0.016709     -0.006324      0.005329
Au     14.21829     13.53723     14.80781        -0.003809     -0.003025      0.001411
Au     12.43006     13.43844     17.02222        -0.017291      0.031827      0.015336
Au     11.91919     11.18321     15.38267        -0.047620     -0.004120      0.016244
Au     13.30320     15.58982     18.50696        -0.020923     -0.002212     -0.037323
Au     17.78468     14.68102     17.09520         0.007792      0.002039      0.013401
Au     15.22874     13.50979     18.02660        -0.016385     -0.051981      0.016339
Au     14.27459     11.25575     16.82930         0.027187     -0.022314     -0.027050
Au     16.75353     12.33161     16.00860         0.003110      0.002528     -0.002563
Au     18.96554     13.72117     14.71850         0.025721      0.018666      0.033369
Au     12.04461     16.09739     16.02529         0.060327      0.023274     -0.020125
Au     13.32431     18.61700     15.87609        -0.009768     -0.027535      0.001015
Au     17.48328     17.49705     17.34455         0.006722     -0.002779      0.008452
Au     18.54647     19.21999     15.41300        -0.005439      0.001402      0.017808
Au     15.95985     19.71505     16.50059         0.008371      0.018612     -0.019722
Au     14.66141     17.99243     18.19024        -0.026178      0.021233     -0.016266
Au     19.16700     16.43685     15.35397        -0.017179     -0.022314      0.005811
Au     16.37621     17.62722     14.53489        -0.036934     -0.091232      0.000540
Au     16.16477     15.83547     19.09601         0.023819      0.024983      0.013806
Au     15.05202     15.84384     16.31854         0.047073     -0.001974     -0.084116
