38
# total energy = -101.82975752 eVAu     12.76433     14.34646     11.85129         0.028651     -0.025287      0.025014
Au     12.71311     11.80336     12.88655         0.014465      0.002470      0.014338
Au     11.39456     13.81172     14.43767         0.016249      0.007848      0.017162
Au     17.42421     12.11058     13.34448         0.034605     -0.020907     -0.018350
Au     15.05770     10.90826     14.10614         0.013929      0.004428     -0.003003
Au     19.87062     15.47103     12.85424        -0.055694     -0.008033      0.020370
Au     16.60323     14.82929     14.05118        -0.048399      0.074242      0.028990
Au     15.36154     15.55227     11.00603        -0.004966     -0.028697      0.012355
Au     17.73171     14.20070     11.56773        -0.025279     -0.014213     -0.030688
Au     15.15307     12.91279     11.94922         0.016232      0.014332      0.023272
Au     12.95567     16.96824     11.05527        -0.021368      0.018264     -0.034920
Au     11.28795     16.31682     13.33043        -0.005442     -0.007187      0.012941
Au     14.10549     16.15060     13.68808         0.035274      0.021907      0.040928
Au     12.71059     18.68325     13.22832         0.022561     -0.002214      0.025248
Au     17.51877     19.57464     12.84361        -0.026962     -0.018420     -0.000892
Au     14.97053     20.06025     13.94140        -0.020572     -0.007077     -0.035078
Au     17.73621     16.96394     11.74120        -0.011252     -0.011796      0.000713
Au     15.26294     18.29585     11.76543         0.015913      0.014388      0.020355
Au     19.87686     18.19487     13.23643         0.017410     -0.007588     -0.011455
Au     14.21517     13.52607     14.80878         0.042952      0.016585     -0.014103
Au     12.41447     13.44666     17.02891         0.000600      0.013343     -0.023634
Au     11.77760     11.19566     15.43940        -0.000068      0.015812      0.002620
Au     13.31584     15.59123     18.47781        -0.012649     -0.004242     -0.006150
Au     17.79962     14.68032     17.19413        -0.012725     -0.022049     -0.013958
Au     15.20800     13.47306     18.05286         0.001816     -0.016920     -0.044319
Au     14.23551     11.26017     16.74933         0.001632      0.005002     -0.017116
Au     16.76510     12.33630     16.03904        -0.003850      0.019669     -0.025825
Au     19.03915     13.73326     14.88583         0.002993     -0.021556      0.040447
Au     12.15483     16.12750     15.98646        -0.006856      0.010993      0.003518
Au     13.29688     18.70178     15.89929         0.022934     -0.028370     -0.013912
Au     17.47733     17.50477     17.38462        -0.003198      0.017879     -0.018560
Au     18.53426     19.21246     15.42205        -0.024531     -0.018948      0.014545
Au     15.96931     19.70364     16.47885         0.008149     -0.017587      0.035121
Au     14.65374     17.98812     18.16328        -0.000905      0.005830     -0.031641
Au     19.18765     16.44585     15.42498        -0.009797     -0.015608      0.003947
Au     16.40759     17.56305     14.51265        -0.011457     -0.005703      0.004537
Au     16.13072     15.83360     19.11183         0.009547      0.006317      0.043968
Au     15.13299     15.78471     16.29721         0.000057      0.033090     -0.046786
