38
# total energy = -100.54686878 eVAu     12.84615     14.38930     11.98888        -0.200944      0.073388     -0.512676
Au     12.73777     11.83531     12.72076        -0.246251     -0.403946     -0.294038
Au     11.37264     13.81147     14.34627        -0.393794     -0.132916      0.109105
Au     17.43295     11.74392     13.28952         0.126835     -0.352963     -0.099083
Au     14.91618     10.89517     14.16091         0.148915     -0.334109     -0.105264
Au     20.00470     15.48028     12.80345         0.479342      0.052671     -0.182327
Au     16.45791     14.87766     14.11502         0.285480     -0.152246     -0.133541
Au     15.42447     15.51081     11.32330        -0.001123     -0.095552     -0.841838
Au     17.84218     14.04993     11.82724        -0.026880     -0.014127     -0.245294
Au     15.23090     12.97240     12.25695         0.028947     -0.351851     -0.664855
Au     12.98812     16.94996     11.09017        -0.037142      0.108687     -0.335555
Au     11.31089     16.36782     13.32783        -0.281441      0.084320      0.017763
Au     14.09538     16.24338     13.73228        -0.442327     -0.008268     -0.302308
Au     12.74961     18.75879     13.16930        -0.317983      0.202770     -0.069394
Au     17.49286     19.60936     12.87141         0.199756      0.211108     -0.116130
Au     14.97311     20.16058     13.94617        -0.180697      0.471400     -0.114085
Au     17.63334     16.82761     12.22446         0.400600      0.131821     -0.698802
Au     15.26667     18.26381     11.90727        -0.025029      0.243018     -0.596999
Au     19.83616     18.20877     13.25429         0.402792      0.171182     -0.135465
Au     14.11682     13.57684     14.85358        -0.163611     -0.045486      0.057610
Au     12.45913     13.42270     17.10557        -0.375609     -0.140663      0.154734
Au     12.13900     11.31906     15.31425        -0.472850     -0.382228      0.133510
Au     13.33777     15.64240     18.47532        -0.212496      0.060327      0.196290
Au     17.62828     14.72211     16.92024         0.555022     -0.292927      0.568910
Au     15.17846     13.55464     17.91201         0.202889     -0.070351      0.512517
Au     14.36691     11.25223     16.85798        -0.023069     -0.483620      0.274806
Au     16.62029     12.47520     15.78537         0.432409     -0.497273      0.362447
Au     18.93217     13.65976     14.59528         0.143059     -0.075442      0.186477
Au     12.29128     15.90830     15.90099        -0.791632      0.336482      0.359476
Au     13.65522     18.34240     15.70690        -0.737501      0.538663      0.366659
Au     17.38077     17.50722     17.27628         0.404261      0.088415      0.495614
Au     18.50027     19.24877     15.42993         0.243929      0.195580     -0.001397
Au     15.97717     19.80125     16.49619        -0.011981      0.411175      0.313629
Au     14.72894     18.05045     18.19599        -0.167526      0.149553      0.310880
Au     18.77461     16.41919     15.12264         0.775905     -0.004779      0.253149
Au     16.28414     17.69553     14.58064         0.195319      0.406929     -0.018695
Au     16.12718     15.82647     19.06225         0.207495      0.022228      0.287984
Au     15.10445     15.88224     16.29512        -0.123067     -0.120972      0.506186
