38
# total energy = -101.83619503 eVAu     12.80456     14.33353     11.91064        -0.021278     -0.032141     -0.004846
Au     12.77499     11.78056     13.01354         0.002608     -0.018348      0.001110
Au     11.41487     13.81591     14.43855         0.013889      0.001070      0.047680
Au     17.60411     12.21907     13.28882        -0.063206      0.058999      0.034298
Au     15.23609     10.93790     14.04152         0.012953     -0.009021     -0.004311
Au     19.59753     15.36419     12.94610        -0.000079     -0.037237     -0.005346
Au     16.72236     14.87653     14.00992        -0.030920      0.005314      0.016528
Au     15.26360     15.55266     10.94993         0.033635      0.007535     -0.007211
Au     17.62405     14.20446     11.36220        -0.011944     -0.023085     -0.003951
Au     15.18170     12.90153     11.96769         0.039864     -0.000523     -0.031199
Au     12.88820     16.97578     11.03511        -0.005441      0.024459      0.029009
Au     11.30892     16.30701     13.33596         0.027839      0.039178      0.030358
Au     14.15994     16.16656     13.66926        -0.042200      0.010964      0.002142
Au     12.71294     18.68963     13.22061         0.019219      0.000195      0.018995
Au     17.50629     19.54405     12.83236        -0.023936      0.010204     -0.020825
Au     14.98051     20.07739     13.92227        -0.001343     -0.011472      0.028303
Au     17.66365     16.95829     11.66554        -0.022353      0.021205     -0.021412
Au     15.21253     18.31577     11.73411         0.008864      0.001855     -0.007803
Au     19.81373     18.09809     13.24446         0.007501     -0.036305     -0.006973
Au     14.29742     13.56061     14.78012         0.042562      0.019257     -0.011416
Au     12.43110     13.45274     17.01428        -0.025761      0.014964     -0.041499
Au     11.62887     11.21270     15.50160         0.003224      0.002118     -0.002847
Au     13.32704     15.58370     18.45868         0.005107      0.052944     -0.027467
Au     17.76580     14.65906     17.29949         0.031443      0.002441     -0.020937
Au     15.19645     13.47732     17.98158        -0.008159     -0.034193      0.009141
Au     14.19303     11.27255     16.61669         0.008717     -0.018489     -0.012915
Au     16.77304     12.33276     16.00357         0.044839     -0.000208      0.000845
Au     19.09941     13.67825     15.10314        -0.015149     -0.021307      0.008142
Au     12.18635     16.16527     15.98034         0.013861     -0.052608     -0.013896
Au     13.33811     18.72237     15.88692         0.009146     -0.037411     -0.014066
Au     17.46342     17.51125     17.44444         0.006891      0.000785      0.000034
Au     18.52754     19.17945     15.42716        -0.006758      0.001791      0.036067
Au     15.98934     19.71620     16.49042        -0.013344     -0.005477     -0.027543
Au     14.66232     17.99186     18.16915        -0.000134      0.002644     -0.019993
Au     19.18433     16.41618     15.52433         0.000242      0.010678      0.029362
Au     16.39770     17.58568     14.51853         0.006170      0.008556      0.006323
Au     16.09465     15.82851     19.17413        -0.019491      0.029497     -0.013310
Au     15.18836     15.79775     16.27885        -0.027077      0.011173      0.021428
