38
# total energy = -101.83749680 eVAu     12.78007     14.32896     11.86773         0.006126      0.046492      0.013206
Au     12.73243     11.79596     12.93385         0.012849     -0.008605      0.010941
Au     11.39664     13.81899     14.44432         0.017546     -0.029853      0.001751
Au     17.49653     12.15278     13.32173         0.020947     -0.012362     -0.009071
Au     15.12788     10.93776     14.08361         0.006190     -0.034436     -0.009306
Au     19.76955     15.43183     12.88827        -0.025541     -0.008879      0.009642
Au     16.62892     14.83708     14.04189         0.063987     -0.004003     -0.024322
Au     15.32444     15.55802     10.96786        -0.002880     -0.022368      0.024937
Au     17.68362     14.20775     11.49256         0.003253      0.000617     -0.022988
Au     15.17181     12.91526     11.95386        -0.019050     -0.015231      0.011609
Au     12.93033     16.96450     11.04718        -0.026028     -0.003504     -0.010533
Au     11.30061     16.31375     13.33670        -0.006569      0.002609     -0.019522
Au     14.12783     16.15108     13.68135        -0.020589      0.005949     -0.016776
Au     12.73453     18.67167     13.23237        -0.054440      0.018942     -0.011105
Au     17.51120     19.56604     12.84112        -0.014735     -0.028414     -0.002155
Au     14.97601     20.06635     13.93709         0.016794     -0.000647     -0.001720
Au     17.70418     16.96511     11.71982         0.001688     -0.001326     -0.011637
Au     15.24170     18.30257     11.75256         0.031566      0.020302      0.011632
Au     19.85762     18.16215     13.23824        -0.014597     -0.005366      0.005581
Au     14.23453     13.53779     14.80319         0.015324      0.004355     -0.007154
Au     12.41147     13.45571     17.02428         0.010842     -0.029363     -0.022109
Au     11.71885     11.20337     15.46373        -0.008382      0.012374      0.006869
Au     13.32132     15.59031     18.46424         0.010306      0.001793      0.020579
Au     17.79824     14.67420     17.24706        -0.017886     -0.022258     -0.027522
Au     15.20687     13.46169     18.02642        -0.000176      0.043633     -0.004108
Au     14.21724     11.26499     16.70240        -0.000192     -0.004070     -0.016200
Au     16.77525     12.34106     16.02353        -0.020213     -0.008896      0.002454
Au     19.05522     13.71763     14.97326         0.014627     -0.002282      0.015815
Au     12.17388     16.14185     15.98113        -0.011555      0.025220      0.007869
Au     13.29961     18.72320     15.90145         0.022123     -0.026426     -0.014899
Au     17.47117     17.50603     17.40953         0.016351      0.024709     -0.021063
Au     18.52720     19.20353     15.42564        -0.007193     -0.028710      0.001302
Au     15.97690     19.70904     16.48014         0.010390      0.004320     -0.010823
Au     14.66808     17.98036     18.14146        -0.029868      0.002990      0.054635
Au     19.17879     16.43945     15.46111         0.009500     -0.007500      0.005457
Au     16.41161     17.55586     14.51058         0.011564      0.091737      0.004667
Au     16.11803     15.82443     19.13374        -0.019009     -0.000624      0.026174
Au     15.15469     15.78499     16.28698        -0.003071     -0.000916      0.027893
