38
# total energy = -101.64482755 eVAu     13.98611     14.02824     11.68014        -0.017996     -0.004121     -0.007803
Au     12.89562     11.91956     13.12166         0.001036      0.006158      0.003147
Au     11.65485     14.49319     13.61070         0.006427      0.009864     -0.003701
Au     15.64537     12.06046     12.87737        -0.003009     -0.008681      0.006962
Au     19.33221     14.99329     12.87231        -0.007788     -0.002398      0.020929
Au     16.90334     14.34506     14.51731        -0.009327      0.006392     -0.009129
Au     18.40051     12.38242     12.88849        -0.006357      0.002595      0.003196
Au     16.84234     14.26741     11.51329        -0.004538     -0.017488     -0.006586
Au     12.64713     16.51233     11.99544        -0.012654     -0.009937     -0.022157
Au     13.08914     19.01152     13.13329         0.013731     -0.029081     -0.013529
Au     17.90539     19.52734     13.31742         0.003373     -0.002229     -0.010845
Au     15.13441     16.32653     10.60282         0.004861      0.004783      0.013824
Au     14.99464     16.22813     13.44006        -0.030057      0.017429     -0.004559
Au     17.69654     16.92398     11.60028        -0.000649      0.011638     -0.028059
Au     15.57435     18.68717     12.01309         0.006140      0.009424     -0.010266
Au     19.96954     17.64834     13.02808        -0.016582      0.005580      0.027971
Au     14.03677     14.85961     18.44214         0.015404      0.002089      0.005841
Au     14.13142     13.90710     14.83790        -0.003943      0.003260     -0.007102
Au     13.14042     12.41640     17.50786        -0.004322     -0.007415      0.008390
Au     11.39748     12.30244     15.35615         0.009850      0.012787      0.003547
Au     14.49809     11.17935     15.36785         0.009291      0.009829      0.002592
Au     11.93429     14.83062     16.47897         0.019504      0.005708      0.016501
Au     17.22684     11.64624     15.31130         0.008805      0.018203      0.012473
Au     18.05460     14.95064     17.23869        -0.011914      0.001339     -0.002439
Au     15.88122     13.16681     17.20093         0.006995     -0.019290     -0.008640
Au     19.42747     13.46189     15.32056        -0.006962      0.013902     -0.016969
Au     12.02587     17.02744     14.76228        -0.017542     -0.006735     -0.001861
Au     13.08802     17.21830     17.39986        -0.000212     -0.024341     -0.005424
Au     13.02614     19.44839     15.85797         0.010030     -0.018216     -0.009438
Au     18.24654     17.77225     17.20285         0.000703     -0.011947     -0.000993
Au     17.57259     20.25571     16.08607         0.016667     -0.001566      0.018417
Au     19.93527     16.18311     15.46734        -0.008826      0.001296      0.004281
Au     15.47083     18.75826     17.09644         0.000208      0.011397      0.005605
Au     16.25661     16.51985     18.71042        -0.011735     -0.004605     -0.003032
Au     19.94786     19.07714     15.34334         0.017383      0.013739      0.013311
Au     17.35075     17.14834     14.54836         0.012831      0.003973     -0.026382
Au     15.35724     19.97317     14.47892         0.029379     -0.024105      0.016262
Au     15.35932     16.02600     16.17750        -0.018205      0.020772      0.015663
