38
# total energy = -101.82526004 eVAu     12.75901     14.34613     11.84938         0.048724      0.036091      0.020794
Au     12.71070     11.80438     12.87500         0.012345     -0.005383      0.052909
Au     11.39445     13.81179     14.43794         0.024863     -0.010412      0.017352
Au     17.41165     12.10290     13.34845         0.043979      0.002671     -0.017849
Au     15.04660     10.89948     14.10928        -0.004452      0.030488      0.005562
Au     19.88846     15.47734     12.84831        -0.075445     -0.013210      0.024957
Au     16.59221     14.83367     14.05629         0.069405     -0.021524     -0.030990
Au     15.36998     15.54976     11.01370        -0.031380     -0.020295      0.013568
Au     17.74067     14.19766     11.57661        -0.032268     -0.004745      0.016194
Au     15.15045     12.91047     11.94981         0.019239      0.028502      0.020488
Au     12.96015     16.97565     11.05387        -0.021460     -0.039463     -0.000530
Au     11.28224     16.31498     13.33076         0.050067      0.017488     -0.000878
Au     14.10884     16.15006     13.69337        -0.094283      0.049165     -0.049649
Au     12.70634     18.68849     13.22847         0.009613     -0.052411      0.020049
Au     17.51969     19.57910     12.83673        -0.026768     -0.067656      0.076099
Au     14.96617     20.05829     13.94304         0.014411     -0.004917     -0.042233
Au     17.74279     16.96472     11.74375        -0.013552     -0.018638      0.010521
Au     15.26476     18.29431     11.76754         0.034607      0.017680      0.026248
Au     19.88248     18.20033     13.23510        -0.013520      0.006395      0.002893
Au     14.21508     13.52868     14.80909         0.008250     -0.054746     -0.010102
Au     12.41430     13.44725     17.02893         0.005687     -0.008578     -0.036059
Au     11.78452     11.19375     15.43625         0.029598      0.032349     -0.004667
Au     13.31082     15.58899     18.48082         0.042882      0.023549     -0.024037
Au     17.80025     14.68089     17.18301        -0.029839     -0.021235     -0.000856
Au     15.20599     13.47179     18.05758         0.020597      0.042638     -0.038299
Au     14.24207     11.25808     16.75904        -0.031923      0.006863     -0.043739
Au     16.76196     12.33397     16.04015         0.008605      0.034878     -0.025372
Au     19.03950     13.73345     14.87227        -0.034760     -0.004388      0.018500
Au     12.15249     16.12684     15.98749        -0.012104      0.006382      0.002595
Au     13.29874     18.69609     15.89787         0.009497     -0.024683     -0.010233
Au     17.47705     17.50392     17.38130         0.007048      0.024243     -0.032154
Au     18.54030     19.21480     15.42769        -0.081187     -0.047234     -0.052214
Au     15.96482     19.70159     16.47991         0.039506     -0.012394      0.018221
Au     14.65086     17.99294     18.16712        -0.010809     -0.046055     -0.027904
Au     19.19087     16.44764     15.41889        -0.018418     -0.020595     -0.003029
Au     16.40005     17.55626     14.51490         0.088506      0.152818     -0.014681
Au     16.13550     15.84066     19.11131        -0.020874     -0.037654      0.008034
Au     15.13203     15.78597     16.29098        -0.034390      0.024019      0.110491
