38
# total energy = -101.86651622 eVAu     12.13943     14.88124     11.03734         0.015415     -0.005545      0.016613
Au     12.30685     12.90550     13.27211         0.015488      0.007004     -0.010683
Au     11.28910     15.54424     13.58066         0.010003      0.032855      0.010597
Au     14.17653     13.02963     11.02960        -0.008761      0.013760      0.003139
Au     15.17666     12.07575     13.47133        -0.002288      0.024041      0.000035
Au     16.82855     15.51314     14.07233         0.015420     -0.011115      0.000316
Au     15.00696     15.91028     10.61489         0.012534      0.005400     -0.012014
Au     14.24571     14.95596     13.11430         0.000700      0.005385     -0.018639
Au     19.21285     14.45393     12.61282         0.008973      0.010732      0.010006
Au     17.65754     16.49422     11.47112        -0.012291     -0.005881     -0.007553
Au     16.70114     13.78927     11.72564        -0.005565      0.003137     -0.010249
Au     12.95932     17.40782     11.92932         0.008245     -0.003049      0.007959
Au     11.32508     18.34074     14.07389         0.015598     -0.003531      0.019782
Au     13.71372     19.57325     13.57009        -0.000274     -0.004552     -0.018549
Au     18.26897     18.94650     12.60920        -0.016081     -0.005265      0.009143
Au     20.23171     17.02345     12.86321        -0.011729      0.005513      0.009194
Au     16.26737     20.60510     13.57639        -0.006479     -0.015583      0.004919
Au     15.58660     18.36619     11.83182        -0.004453     -0.014336      0.013563
Au     13.84946     13.18093     17.88516        -0.009915      0.008863      0.000372
Au     11.92092     14.04558     15.89469         0.014812      0.003445      0.005342
Au     13.26717     11.67632     15.52264        -0.025678     -0.008564      0.002449
Au     13.12918     16.05343     17.72307        -0.006745     -0.011894      0.005942
Au     17.75678     12.84140     14.31200        -0.006518     -0.026706      0.009696
Au     19.39351     15.43830     15.21111         0.005129      0.019946      0.004729
Au     14.85851     14.56801     15.75251         0.019842     -0.000151      0.022301
Au     15.72600     15.33459     18.38404         0.012426     -0.016151     -0.000149
Au     15.91959     11.98255     16.22552         0.000094     -0.007563      0.011487
Au     17.65867     14.03862     16.87597         0.012122      0.023357     -0.024181
Au     13.68583     16.92396     14.93049        -0.024109      0.019265      0.001018
Au     10.88744     16.54353     16.16771         0.008054      0.017217     -0.005003
Au     12.58017     18.74814     16.70285        -0.023717     -0.021338     -0.006020
Au     17.41094     19.59420     16.72626        -0.027706     -0.014500     -0.005981
Au     18.81930     20.89831     14.59719         0.016784      0.002414     -0.008300
Au     14.80490     20.28067     16.02720        -0.009449      0.004093     -0.018435
Au     15.17352     17.99933     17.63921         0.008558     -0.015921     -0.018402
Au     17.64798     16.80867     16.99788         0.009080     -0.016382      0.015165
Au     16.26044     18.04630     14.69143        -0.007287     -0.002368     -0.020064
Au     19.30223     18.20409     15.17639        -0.000231      0.003967      0.000454
