38
# total energy = -101.71355773 eVAu     13.97622     14.01075     11.65193         0.005925     -0.002821      0.021452
Au     12.89561     11.91918     13.15697         0.004972      0.022254      0.002153
Au     11.62848     14.44872     13.61396        -0.035653      0.003847      0.029176
Au     15.63419     12.06405     12.88309         0.009321      0.008045      0.011438
Au     19.29496     15.01544     12.87844         0.021140     -0.023402     -0.011348
Au     16.84677     14.38031     14.44953        -0.001776      0.023775     -0.000773
Au     18.38042     12.39585     12.86372         0.011431      0.025707     -0.018603
Au     16.80656     14.26167     11.47734         0.018171     -0.012305     -0.012898
Au     12.52482     16.41824     11.89718        -0.003253     -0.009423      0.021905
Au     13.22624     18.85529     13.08485        -0.011979     -0.021392     -0.028584
Au     17.97839     19.60888     13.39236         0.015325      0.002981      0.009998
Au     15.10760     16.35841     10.65630         0.003691      0.027266      0.011958
Au     14.81452     16.34559     13.47553         0.049659     -0.041334      0.045220
Au     17.74593     16.89645     11.49126        -0.000746     -0.021199     -0.013340
Au     15.73535     18.73691     11.96270         0.019226      0.007196      0.035147
Au     19.90897     17.67335     13.09343         0.010284      0.005994     -0.030230
Au     14.05825     14.84402     18.44492        -0.013307     -0.009226     -0.003182
Au     14.11550     13.94211     14.83143         0.019181      0.032922     -0.000081
Au     13.12010     12.37780     17.56404        -0.000835      0.017085      0.005981
Au     11.40752     12.30122     15.40327         0.004484     -0.024912     -0.002574
Au     14.52737     11.22617     15.39750        -0.029605      0.005037     -0.005898
Au     11.95331     14.82121     16.52357        -0.022241     -0.001232     -0.011765
Au     17.26401     11.70166     15.32296        -0.051281     -0.006807     -0.000261
Au     18.00330     14.93150     17.23348         0.029899     -0.008770     -0.016287
Au     15.86007     13.14028     17.21481         0.016418     -0.003879     -0.020307
Au     19.40665     13.50921     15.28805         0.001685     -0.010838      0.016043
Au     12.01670     16.97656     14.75003         0.012903     -0.013406      0.005627
Au     13.11660     17.20980     17.41195        -0.017916      0.008356     -0.009017
Au     13.05436     19.38809     15.80072        -0.009504      0.005129     -0.012023
Au     18.22723     17.73970     17.16445        -0.016706      0.027796      0.001494
Au     17.62698     20.25309     16.15774        -0.021627      0.009771      0.017448
Au     19.91367     16.20252     15.49888        -0.023264     -0.008381     -0.019276
Au     15.48130     18.78707     17.13310        -0.013317      0.005617     -0.017480
Au     16.23684     16.53831     18.70386        -0.004426     -0.016264      0.074692
Au     20.04314     19.09534     15.43429        -0.045482     -0.002963     -0.027669
Au     17.29913     17.15351     14.43030         0.005886      0.013355     -0.008578
Au     15.42140     19.90213     14.49871         0.031815      0.013868      0.007782
Au     15.37865     16.05365     16.16879         0.031500     -0.027448     -0.047338
