38
# total energy = -101.61359571 eVAu     13.74271     11.80862     13.60707         0.048292      0.122538      0.060780
Au     13.99686     15.47028     10.53611        -0.248149     -0.032104      0.216212
Au     11.66730     15.86882     14.64645        -0.228829     -0.111707     -0.145886
Au     12.68018     14.22634     12.58833        -0.010828      0.127056     -0.002833
Au     16.46580     12.35521     14.26034         0.127935     -0.063438     -0.096819
Au     19.31182     16.09066     14.55331        -0.177285     -0.120565     -0.015938
Au     16.71436     15.37884     10.54079         0.139608     -0.037934     -0.001003
Au     15.28146     15.86216     13.32529        -0.076234      0.088740     -0.093810
Au     17.87828     14.32309     12.83786         0.045361     -0.060999      0.052099
Au     15.35981     13.29517     11.85655        -0.004603      0.037816      0.090418
Au     12.77824     17.15553     12.39226         0.137075     -0.161670     -0.056969
Au     11.92464     18.61349     14.57547        -0.023903     -0.005130      0.035887
Au     17.02797     19.70223     12.62001        -0.071575     -0.099913     -0.002570
Au     16.95371     17.81600     14.77140        -0.090837     -0.061734     -0.002635
Au     14.47718     19.03614     13.63007         0.091273      0.076971     -0.119321
Au     18.06031     17.09014     12.14967         0.099928      0.052911      0.115383
Au     15.41773     17.82009     11.20755        -0.036898      0.081169      0.190996
Au     19.47397     18.81440     13.84751         0.014127     -0.039278     -0.086567
Au     14.10092     14.08402     15.29606        -0.024402      0.123203     -0.024819
Au     12.65734     12.66739     17.38032         0.082594     -0.054820      0.004720
Au     11.52707     13.02296     14.86527         0.032218      0.083634     -0.079444
Au     13.32769     15.26738     18.08774         0.052523      0.076372      0.133587
Au     10.77252     14.70572     17.02079         0.034501      0.096341     -0.020591
Au     18.12031     14.22425     17.89816        -0.200430      0.257055     -0.127256
Au     15.37785     13.36830     17.89446         0.056439      0.090641      0.064645
Au     16.66511     15.10035     15.60878         0.208804      0.074025      0.157025
Au     16.01580     16.10145     18.40276         0.130305     -0.106534     -0.017896
Au     14.76015     11.21546     16.18891         0.062152      0.082394     -0.005996
Au     17.42627     11.73359     16.84889        -0.082076     -0.063646      0.006685
Au     18.96440     13.43325     15.29517        -0.156576      0.162088     -0.127438
Au     13.77145     19.60040     16.39561         0.059611     -0.055700     -0.129580
Au     11.67459     17.37685     17.06093         0.038644     -0.142411     -0.071530
Au     13.92561     17.92791     18.61253         0.014977     -0.097393     -0.002833
Au     18.71476     19.57583     16.35307         0.054627      0.120606      0.105887
Au     16.23366     20.54714     15.27252        -0.011806     -0.081852     -0.025879
Au     16.29531     18.80216     17.51092         0.064013     -0.054483      0.035443
Au     18.45651     16.93103     17.18060        -0.181756     -0.213990      0.008853
Au     14.39589     16.90253     15.80149         0.031179     -0.088259     -0.021008
