38
# total energy = -101.18507183 eVAu     13.96819     14.08952     11.62792         0.087789      0.049608     -0.005508
Au     12.88939     11.97867     13.02477         0.056260      0.047377     -0.025563
Au     11.72059     14.66502     13.44702         0.101582      0.020979      0.013378
Au     15.63030     12.08336     12.87874         0.031502      0.029745     -0.079100
Au     19.25251     15.03048     12.94418        -0.066440     -0.041148     -0.043424
Au     16.85639     14.25177     14.57297         0.086407     -0.022928      0.081749
Au     18.41260     12.35680     12.94019        -0.061440      0.087803     -0.025192
Au     16.86687     14.26415     11.50479        -0.006162     -0.005407      0.050317
Au     12.86112     16.72819     11.89214         0.099558     -0.089423      0.154069
Au     12.86870     19.24147     13.16126         0.078453     -0.054119      0.030394
Au     17.65790     19.40621     13.12953        -0.009203     -0.002431     -0.008778
Au     15.19942     16.25253     10.36584         0.039099     -0.059156      0.095227
Au     15.26441     16.18148     13.30638        -0.100807      0.067447     -0.009759
Au     17.62042     16.99149     11.58162        -0.008582     -0.072748     -0.041873
Au     15.23011     18.66142     11.74417         0.050153     -0.060406      0.118447
Au     19.93575     17.68298     12.98962        -0.026918     -0.074753     -0.030374
Au     14.08824     14.82508     18.55224         0.065983     -0.024686     -0.084098
Au     14.07916     14.00243     14.79802         0.016411      0.100065      0.015922
Au     13.16046     12.42748     17.55056        -0.031880      0.009238      0.029888
Au     11.51764     12.49303     15.28632        -0.079411     -0.041509      0.068757
Au     14.42835     11.25314     15.34943         0.037728      0.002514      0.000079
Au     11.99974     14.91235     16.58186         0.067680      0.034069     -0.038472
Au     17.19121     11.52813     15.29944        -0.047692      0.049797      0.042377
Au     18.00184     15.09917     17.20474         0.001118     -0.069645      0.012007
Au     15.86053     13.20441     17.11405         0.071669      0.005855      0.016935
Au     19.40597     13.45226     15.38688        -0.105033      0.089535     -0.028883
Au     12.66605     16.94688     14.79394        -0.277101     -0.038343     -0.021962
Au     13.14942     17.24074     17.65234         0.075279     -0.001665     -0.160555
Au     12.99742     19.45815     15.98390         0.041844     -0.007714     -0.005578
Au     18.19195     17.91801     17.35688        -0.018253     -0.086570     -0.016539
Au     17.36407     20.20910     15.92857        -0.006499      0.049017      0.091131
Au     20.05373     16.15341     15.53965        -0.094678      0.021013     -0.042240
Au     15.43878     18.87178     17.40724         0.019994     -0.034057     -0.108805
Au     16.23828     16.55310     18.80100        -0.056993     -0.065423     -0.120362
Au     19.77357     19.01283     15.31771         0.060530      0.109126      0.010840
Au     17.56511     17.08069     14.65434        -0.127285     -0.067524      0.055095
Au     15.28874     18.86002     14.55997         0.028655      0.152887     -0.016822
Au     15.34218     16.11634     16.17517         0.006681     -0.006420      0.027275
