38
# total energy = -101.85261728 eVAu     12.11525     14.85763     11.06043         0.017615      0.016237      0.004570
Au     12.30619     12.88042     13.27857        -0.001492      0.015326     -0.012580
Au     11.28095     15.53002     13.59951         0.023410      0.013479     -0.049156
Au     14.18211     13.04112     11.02201        -0.017335     -0.023061     -0.000916
Au     15.16692     12.11925     13.49850        -0.022024     -0.048655     -0.025796
Au     16.82198     15.55833     14.06254        -0.032094      0.017314     -0.009235
Au     15.00244     15.91335     10.61171         0.012574      0.022702      0.028089
Au     14.23403     14.93542     13.11835         0.039567      0.071041      0.069211
Au     19.18770     14.49987     12.62278         0.066702     -0.012899      0.012294
Au     17.65165     16.52822     11.45508        -0.029285     -0.035228     -0.013203
Au     16.69624     13.81278     11.73196        -0.009475     -0.017807     -0.014389
Au     12.96363     17.39591     11.92453         0.001240      0.004182      0.017076
Au     11.31815     18.33120     14.03043         0.029528      0.012472     -0.002172
Au     13.70984     19.59259     13.57414        -0.014657     -0.049383     -0.005342
Au     18.25919     18.96950     12.59639         0.007003     -0.009358      0.010965
Au     20.23489     17.06180     12.85115        -0.024803     -0.036328      0.007083
Au     16.26670     20.64667     13.53902        -0.028366     -0.037468     -0.003115
Au     15.57112     18.38005     11.83366        -0.008660     -0.013718     -0.027142
Au     13.85185     13.14549     17.87671        -0.011858      0.032211      0.049160
Au     11.96747     14.05456     15.89560        -0.043673     -0.012441      0.018509
Au     13.23858     11.63753     15.53328         0.017595      0.020170     -0.020783
Au     13.14604     16.03105     17.73255        -0.004510     -0.008017     -0.007356
Au     17.73824     12.87521     14.33585         0.036315     -0.012069     -0.034923
Au     19.37606     15.40907     15.23372         0.029019     -0.022290     -0.020698
Au     14.90689     14.56983     15.77685        -0.023945      0.059167     -0.085708
Au     15.74113     15.29548     18.41885        -0.056330      0.033654     -0.014634
Au     15.90240     11.96607     16.24267         0.009685     -0.049266     -0.022157
Au     17.66907     13.98717     16.91915         0.025860      0.046793      0.002647
Au     13.70402     16.91372     14.92685         0.021810     -0.037667     -0.024307
Au     10.94193     16.56863     16.16350        -0.027944     -0.015864      0.030539
Au     12.59722     18.79854     16.60446        -0.008194      0.004687      0.059709
Au     17.40938     19.54804     16.77304         0.041952     -0.005175     -0.002891
Au     18.81015     20.86802     14.61104        -0.005376      0.032462      0.017296
Au     14.85345     20.32382     16.01005        -0.024069     -0.009654      0.007337
Au     15.15210     17.95616     17.56362         0.036669      0.028123      0.053147
Au     17.64802     16.75793     17.02073        -0.015248      0.064899     -0.013616
Au     16.25927     18.09739     14.67682         0.003614     -0.071473      0.001461
Au     19.26440     18.16526     15.17326        -0.010821      0.032904      0.021025
