38
# total energy = -101.85857320 eVAu     12.11780     14.86227     11.06429         0.032858     -0.005729     -0.034636
Au     12.30644     12.88211     13.27717         0.002281      0.028579     -0.025459
Au     11.27582     15.53312     13.58888         0.017508      0.018697      0.014429
Au     14.17970     13.03682     11.02179        -0.031397      0.004003      0.015959
Au     15.16752     12.10387     13.48884        -0.004832     -0.018634     -0.008148
Au     16.81247     15.54928     14.07044         0.049390      0.007501     -0.028822
Au     15.01035     15.91636     10.61440        -0.024585     -0.001276      0.018579
Au     14.23336     14.94383     13.12264         0.009438     -0.014480     -0.049149
Au     19.19295     14.49543     12.62118         0.026047     -0.027905     -0.008870
Au     17.65035     16.52167     11.46391         0.004641     -0.034198     -0.015327
Au     16.68951     13.81228     11.73446         0.036790     -0.019677     -0.006591
Au     12.96615     17.39825     11.92417        -0.005535      0.006483      0.005150
Au     11.32070     18.33590     14.03162         0.011257     -0.028707      0.043249
Au     13.70716     19.58638     13.57774         0.023712     -0.012595     -0.014342
Au     18.26339     18.96248     12.60077         0.004823      0.011645      0.007577
Au     20.23940     17.05621     12.85096        -0.016349     -0.030384      0.008327
Au     16.26864     20.63814     13.54675        -0.030878     -0.036794      0.008302
Au     15.57628     18.37387     11.84398        -0.019931      0.010994     -0.037979
Au     13.85451     13.15014     17.88424        -0.003761      0.035420      0.001976
Au     11.96350     14.05068     15.89466        -0.039319     -0.013235      0.008814
Au     13.24523     11.64368     15.52731         0.014486      0.014396      0.006552
Au     13.14285     16.03885     17.73013        -0.015318     -0.008452     -0.006150
Au     17.73957     12.87378     14.33174         0.015599     -0.021201     -0.015766
Au     19.37824     15.41309     15.22287         0.011828     -0.000286      0.007673
Au     14.89124     14.57195     15.76965        -0.009445     -0.032870      0.028651
Au     15.73435     15.30654     18.41098        -0.020277      0.014384     -0.020073
Au     15.90417     11.96719     16.23951         0.025582      0.007038     -0.021455
Au     17.67218     14.00022     16.91720        -0.012694      0.017985     -0.020851
Au     13.70846     16.91470     14.92331        -0.063091      0.048263      0.021970
Au     10.93310     16.55569     16.15760        -0.013485      0.031779      0.012096
Au     12.59687     18.78426     16.62808        -0.032251     -0.024904      0.017287
Au     17.41391     19.55430     16.75993         0.006507      0.022932     -0.001233
Au     18.81758     20.87577     14.60634        -0.011971      0.020608      0.011046
Au     14.84155     20.31681     16.01307         0.003516     -0.007250      0.006890
Au     15.15657     17.96818     17.57959         0.037962      0.016415      0.044576
Au     17.64481     16.76865     17.00857        -0.007743      0.031851      0.004620
Au     16.25797     18.08729     14.67968         0.022421     -0.024527      0.006417
Au     19.27196     18.17305     15.17094         0.006217      0.014128      0.014711
