38
# total energy = -101.41661274 eVAu     12.25355     14.93739     11.02639        -0.052428     -0.043881      0.035765
Au     12.46387     13.11442     13.30533        -0.155145     -0.269288      0.051809
Au     11.38035     15.65982     13.60913        -0.021469      0.002900     -0.064001
Au     14.22563     13.01784     10.98858        -0.086159     -0.004149     -0.038021
Au     15.17620     12.10018     13.46114        -0.035187      0.016872      0.160923
Au     16.99250     15.77359     13.87757        -0.033415     -0.017353      0.005383
Au     14.97540     15.82221     10.51712         0.038583      0.026629      0.023573
Au     14.40644     15.08404     13.13081         0.040821      0.037421      0.004414
Au     19.27280     14.34871     12.55670        -0.049298      0.051376     -0.043515
Au     17.68305     16.45383     11.25928        -0.050713     -0.054747     -0.029331
Au     16.71459     13.74291     11.75655         0.129331      0.122381     -0.018499
Au     12.86638     17.46630     11.90759        -0.001417     -0.036826      0.038878
Au     11.17831     18.42790     14.02803         0.070189     -0.038286      0.020115
Au     13.65632     19.48835     13.64749         0.033298      0.015584      0.066436
Au     18.18112     18.86124     12.62059        -0.157785      0.149534     -0.042347
Au     20.08837     16.94038     12.87866         0.038402     -0.014313      0.012030
Au     16.05268     20.59688     13.08241         0.070351     -0.051653      0.134499
Au     15.49393     18.23442     11.74011         0.096667      0.062867      0.043622
Au     13.93780     13.22836     17.73428         0.028238      0.025465      0.099857
Au     12.00058     14.16535     15.92065         0.000022      0.009425     -0.048965
Au     13.24706     11.66911     15.50820        -0.025771      0.017036     -0.067738
Au     13.10286     15.99214     17.85174         0.089380     -0.047866     -0.061668
Au     17.73802     12.94278     14.36100        -0.064949     -0.012489      0.047787
Au     19.34783     15.26675     15.23371         0.093082      0.058271      0.077887
Au     15.27269     14.66661     15.74811        -0.089580     -0.037812     -0.039741
Au     15.73189     15.30968     18.50806        -0.150739     -0.063287      0.015748
Au     15.92618     11.88094     16.18553         0.018912      0.074077     -0.027323
Au     17.67946     13.87065     17.05896         0.026151     -0.079757     -0.036525
Au     13.72217     16.83822     15.09777         0.004376      0.093925     -0.036288
Au     11.04368     16.74574     16.21104        -0.028259     -0.107820      0.017420
Au     12.69634     18.99614     16.46869         0.019918      0.022195      0.004939
Au     17.40173     19.39381     17.13788         0.061970     -0.037751     -0.076788
Au     18.14118     20.74953     14.79025         0.195850      0.056255      0.002376
Au     15.06956     20.37114     15.98111        -0.118424      0.045376     -0.072626
Au     15.07247     17.94234     17.70307         0.028672      0.045961     -0.149142
Au     17.61980     16.64047     17.03239         0.035855      0.094238     -0.053962
Au     16.20327     18.17170     14.78318         0.044814     -0.095370     -0.079212
Au     19.13056     18.11123     15.19025        -0.044143     -0.015141      0.122227
