38
# total energy = -101.83124814 eVAu     13.77460     11.89509     13.65552        -0.034974     -0.018951     -0.030325
Au     13.96842     15.43311     10.57333        -0.022440     -0.012877     -0.015797
Au     11.35833     15.87117     14.52498        -0.070214      0.024648     -0.021910
Au     12.61514     14.24791     12.59672         0.015642      0.027314     -0.002775
Au     16.56244     12.22498     14.18080        -0.002100     -0.030883     -0.011019
Au     19.25533     16.07131     14.54991         0.018124      0.006984      0.013924
Au     16.72276     15.40233     10.55652        -0.001425      0.003806      0.038974
Au     15.28072     15.87713     13.31070         0.007105     -0.019456      0.050935
Au     17.90988     14.27506     12.79849        -0.027567      0.033836     -0.025886
Au     15.36692     13.32328     11.89893         0.011905     -0.005935     -0.027391
Au     12.79939     17.12405     12.40776        -0.014074     -0.003353      0.014454
Au     11.91597     18.57421     14.55801         0.035319      0.010744     -0.011919
Au     17.04024     19.68474     12.61018         0.012977      0.013411     -0.020701
Au     16.91731     17.82605     14.76511        -0.004059     -0.028686     -0.005452
Au     14.43668     19.14049     13.55813        -0.002727      0.007873     -0.022849
Au     18.10840     17.08770     12.16433        -0.040882      0.014633      0.029743
Au     15.40060     17.82685     11.26381         0.006211     -0.002471      0.008165
Au     19.46869     18.81188     13.87777        -0.057512     -0.027660      0.051081
Au     14.10528     14.15715     15.29969         0.001716      0.016367      0.016776
Au     12.71116     12.67882     17.35210         0.006751      0.006442      0.018717
Au     11.52906     13.06163     14.85389        -0.019234     -0.024758     -0.028639
Au     13.31947     15.24649     18.23762         0.031991      0.018548      0.028869
Au     10.81151     14.69709     17.00462        -0.013516      0.022744      0.023268
Au     18.07896     14.25641     17.86936         0.036672      0.003777     -0.037363
Au     15.39204     13.38332     17.96835        -0.018488      0.002875     -0.004604
Au     16.67812     15.14563     15.61416        -0.049877     -0.023850      0.026666
Au     16.03500     16.08617     18.48592        -0.009668      0.022928     -0.035952
Au     14.79721     11.28933     16.17757         0.043043     -0.006652      0.014412
Au     17.41934     11.72913     16.85763         0.022288      0.040907     -0.008786
Au     18.90005     13.43545     15.25493         0.028304     -0.013794      0.043637
Au     13.83449     19.54010     16.31565        -0.008025      0.013769     -0.003707
Au     11.74877     17.29786     16.99127        -0.029930     -0.060676     -0.022258
Au     13.93733     17.90687     18.58966         0.025140     -0.005144     -0.013388
Au     18.76670     19.61832     16.41128        -0.012760      0.003556      0.027120
Au     16.27603     20.50376     15.25890         0.067312      0.032457      0.008015
Au     16.33530     18.78533     17.54458        -0.001557      0.008568     -0.042127
Au     18.42655     16.92983     17.16896         0.008949     -0.012736      0.006271
Au     14.39134     16.86919     15.81392         0.061579     -0.038305     -0.028177
