38
# total energy = -101.29984474 eVAu     12.82788     14.38752     11.93234        -0.132915     -0.037114     -0.147496
Au     12.71051     11.79448     12.67293        -0.014182     -0.072821      0.173902
Au     11.32173     13.80426     14.35742         0.073167     -0.154335      0.075189
Au     17.44789     11.69750     13.27710        -0.008102      0.106940      0.018735
Au     14.93882     10.84778     14.14536        -0.051081      0.139620      0.040205
Au     20.06869     15.48150     12.77841        -0.046999      0.100681      0.031821
Au     16.47468     14.86928     14.10718         0.118796      0.008155     -0.045238
Au     15.42998     15.49913     11.23869        -0.065382      0.023462     -0.414784
Au     17.84024     14.04653     11.78668        -0.006437      0.032983      0.116154
Au     15.23063     12.94245     12.18532        -0.031338     -0.272357     -0.255471
Au     12.98278     16.96044     11.03804         0.027995      0.117947      0.070409
Au     11.26485     16.37541     13.33512         0.075154      0.014419     -0.039117
Au     14.06440     16.23852     13.71572        -0.142056      0.099475     -0.088572
Au     12.71100     18.79432     13.16814        -0.011844     -0.133246     -0.067553
Au     17.51120     19.64009     12.84848         0.098707     -0.109547      0.103810
Au     14.94980     20.21992     13.93136        -0.012553     -0.060764     -0.011798
Au     17.65658     16.83988     12.14562         0.364465      0.110654     -0.306773
Au     15.27204     18.28767     11.84038        -0.037190      0.120994     -0.126343
Au     19.89345     18.23438     13.23530        -0.048965     -0.016075      0.016619
Au     14.11000     13.58517     14.85742        -0.160546     -0.240466      0.028914
Au     12.41356     13.41348     17.13000        -0.011479     -0.125271     -0.139636
Au     12.07521     11.26902     15.33238        -0.017599      0.031606      0.011361
Au     13.29968     15.64718     18.50291         0.082246      0.010857     -0.018998
Au     17.68792     14.69109     16.97316         0.230969     -0.083302      0.339334
Au     15.20261     13.53768     17.96354        -0.001558     -0.083635      0.183266
Au     14.37506     11.19880     16.90003        -0.132949     -0.029521     -0.130879
Au     16.66523     12.42902     15.82872         0.120540     -0.327275      0.134160
Au     18.95764     13.64649     14.62414        -0.079671      0.060119     -0.069817
Au     12.21417     15.94314     15.93627        -0.445596      0.151765      0.197279
Au     13.57578     18.39186     15.74514        -0.268321      0.332969      0.154228
Au     17.43177     17.51475     17.32543         0.069313      0.082485      0.142590
Au     18.53203     19.27462     15.44114        -0.007401     -0.072616     -0.164922
Au     15.97546     19.85290     16.53648        -0.008094     -0.063688      0.001715
Au     14.70474     18.08078     18.23123         0.024626     -0.146397      0.023195
Au     18.84576     16.41422     15.16545         0.484153      0.067587     -0.001549
Au     16.29961     17.71758     14.57769         0.024000      0.220339      0.022836
Au     16.15924     15.82356     19.10494        -0.015431      0.133322     -0.038924
Au     15.09226     15.87070     16.32635        -0.036445      0.062050      0.182146
