38
# total energy = -101.81476371 eVAu     12.12500     14.85704     11.05589         0.024212     -0.008921      0.009134
Au     12.31283     12.89245     13.28614         0.010802      0.043193     -0.013831
Au     11.32852     15.53465     13.61524        -0.039200      0.029028      0.009969
Au     14.18921     13.04228     11.03038        -0.006456      0.000356     -0.003718
Au     15.15093     12.14363     13.51511         0.046749     -0.062267     -0.049261
Au     16.86366     15.58917     14.00701        -0.030390      0.018071      0.091886
Au     14.98098     15.91194     10.61765         0.031129     -0.015154     -0.049737
Au     14.27093     14.94889     13.13323        -0.039711      0.002536     -0.002934
Au     19.21089     14.50453     12.63392        -0.039060     -0.040864     -0.059775
Au     17.63451     16.52830     11.40276         0.045637     -0.024702      0.037560
Au     16.71570     13.80083     11.71598        -0.009230      0.002912      0.026150
Au     12.95084     17.38473     11.93033         0.034085      0.047102     -0.025231
Au     11.31764     18.32536     14.02340        -0.049405      0.007841      0.046358
Au     13.70940     19.57063     13.56408         0.002475     -0.003306      0.026531
Au     18.23298     18.97629     12.58776        -0.010318     -0.024468      0.021546
Au     20.17731     17.06902     12.86724         0.072423     -0.021414     -0.029645
Au     16.23868     20.64585     13.48972         0.013132      0.012648     -0.002841
Au     15.55212     18.40216     11.76517         0.001787     -0.030023      0.074292
Au     13.84280     13.15856     17.86117         0.034675     -0.024183     -0.018027
Au     11.94534     14.06351     15.91451         0.007458     -0.013966     -0.021023
Au     13.21950     11.64177     15.53910         0.034864      0.007538      0.012269
Au     13.15456     15.99715     17.73430        -0.022414      0.062790      0.011731
Au     17.74956     12.88272     14.32867        -0.037978     -0.006499      0.029095
Au     19.38389     15.37624     15.26469        -0.016389      0.033088     -0.045497
Au     14.97614     14.58496     15.76997        -0.032751     -0.003822     -0.021423
Au     15.72756     15.27077     18.43433         0.023125      0.060728      0.006460
Au     15.90159     11.93570     16.22859         0.008730      0.050697     -0.003688
Au     17.66626     13.96924     16.93444        -0.007475     -0.026589     -0.013243
Au     13.70697     16.90390     14.94788         0.017693     -0.008666      0.025403
Au     10.96798     16.60322     16.20840        -0.012886      0.008374     -0.099487
Au     12.61658     18.87142     16.54477        -0.053291     -0.096176      0.067359
Au     17.41971     19.51477     16.83568        -0.033261      0.002822     -0.041192
Au     18.74578     20.86143     14.65243        -0.021682     -0.007551     -0.029800
Au     14.89741     20.33762     15.99466         0.016039      0.009933     -0.009796
Au     15.13871     17.93490     17.53338         0.030235      0.030818      0.071372
Au     17.65497     16.73609     17.06850        -0.027060      0.030518     -0.049659
Au     16.25253     18.10774     14.67206         0.023160     -0.074631      0.025388
Au     19.21668     18.14369     15.19087         0.010546      0.032210     -0.002696
