38
# total energy = -101.63158418 eVAu     13.97833     14.02646     11.66540         0.014050      0.021178      0.015103
Au     12.89756     11.92387     13.10880        -0.011720      0.006267      0.031441
Au     11.66135     14.50646     13.61348        -0.011954     -0.017125     -0.011471
Au     15.64400     12.06379     12.87302         0.007775     -0.008195      0.016839
Au     19.34656     14.98628     12.88360        -0.037184      0.028618     -0.018287
Au     16.89974     14.34510     14.51930         0.037752     -0.040409      0.011249
Au     18.40374     12.37867     12.89892        -0.007392     -0.008412     -0.022030
Au     16.85394     14.25991     11.51780        -0.021315      0.016370     -0.017876
Au     12.66814     16.52832     12.01144         0.001119     -0.014533     -0.046078
Au     13.07832     19.03148     13.14447         0.002405     -0.036151     -0.017523
Au     17.88890     19.51437     13.29318         0.025058      0.002686      0.002201
Au     15.14408     16.31724     10.60137        -0.003094     -0.012211     -0.002897
Au     15.02260     16.21330     13.43743        -0.066304      0.046035     -0.062423
Au     17.69446     16.92521     11.61388         0.008581     -0.009685     -0.014421
Au     15.55136     18.68424     11.99884        -0.003957     -0.002095      0.011777
Au     19.98644     17.64472     13.01724        -0.039451     -0.005016      0.015610
Au     14.04946     14.85742     18.44360         0.007933     -0.029781      0.005036
Au     14.12571     13.91554     14.84066        -0.007735     -0.018884     -0.009119
Au     13.13323     12.42420     17.50466         0.022145     -0.004198      0.021417
Au     11.40298     12.30235     15.34761         0.010880      0.031820     -0.003619
Au     14.49742     11.19182     15.36748        -0.011837     -0.015567     -0.011471
Au     11.92989     14.83357     16.48834        -0.000894     -0.032009     -0.035583
Au     17.22564     11.63832     15.31112         0.019398      0.007790     -0.005507
Au     18.05923     14.94951     17.24593        -0.019846     -0.001913     -0.016934
Au     15.88801     13.15554     17.19427        -0.023057      0.020286      0.026893
Au     19.42053     13.45656     15.32708         0.006982      0.014445      0.003938
Au     12.00986     17.03596     14.76150        -0.003638      0.021716      0.021816
Au     13.08400     17.20396     17.38771         0.006395      0.057727      0.023667
Au     13.03526     19.45540     15.86930        -0.008110     -0.051637     -0.001602
Au     18.25536     17.77106     17.20994        -0.018738      0.021356     -0.013898
Au     17.55235     20.26686     16.09292         0.053855     -0.021655      0.018752
Au     19.93286     16.18105     15.45922         0.002570      0.007072      0.026281
Au     15.47171     18.75736     17.11064        -0.016817     -0.013141     -0.002714
Au     16.26298     16.51599     18.71175         0.000429      0.010472      0.015041
Au     19.90520     19.08455     15.31610         0.054783      0.005986      0.038103
Au     17.35643     17.15186     14.56176         0.023839      0.016112     -0.018655
Au     15.36064     19.95846     14.47667         0.004677     -0.021008     -0.001309
Au     15.35885     16.02730     16.17900         0.002415      0.027693      0.028253
