38
# total energy = -101.39859423 eVAu     14.01819     14.06794     11.58640        -0.057626      0.055702      0.063979
Au     12.91241     12.03092     13.06959         0.062997     -0.083381     -0.126905
Au     11.74399     14.61476     13.46218        -0.044708      0.095965      0.008104
Au     15.64260     12.06530     12.80805        -0.065237     -0.029078      0.131957
Au     19.24719     15.01040     12.87793         0.020312     -0.043784      0.098567
Au     16.85719     14.24817     14.62283         0.014171      0.077450     -0.044698
Au     18.37896     12.37124     12.92972         0.067939     -0.042749      0.055914
Au     16.87612     14.24469     11.48937         0.011620      0.014752     -0.009843
Au     12.89052     16.68543     11.96507        -0.022081     -0.064667     -0.037253
Au     12.90172     19.21068     13.17638         0.067932     -0.067383     -0.015282
Au     17.68716     19.37243     13.14018         0.162397      0.137443     -0.038999
Au     15.23259     16.23668     10.39114        -0.079935      0.054712      0.028214
Au     15.23952     16.21012     13.35576        -0.069748     -0.020832      0.004774
Au     17.66022     16.94844     11.51926        -0.050479      0.013016      0.038731
Au     15.28933     18.62796     11.80362        -0.025492     -0.050827     -0.014711
Au     19.89252     17.65383     13.01602         0.112307     -0.023368     -0.051809
Au     14.10352     14.79532     18.50064        -0.038207     -0.008046      0.022376
Au     14.10174     14.02693     14.81445         0.027322      0.008974     -0.004928
Au     13.12497     12.40025     17.56862         0.004824      0.013923     -0.072225
Au     11.47388     12.45035     15.30005        -0.028957     -0.001376      0.161170
Au     14.43437     11.29141     15.34715         0.037593     -0.030054     -0.007082
Au     12.01064     14.89225     16.56694        -0.045339     -0.069317     -0.074916
Au     17.18474     11.53936     15.31279         0.027531      0.029929     -0.035605
Au     18.05783     15.03706     17.28430        -0.072088      0.025196     -0.060677
Au     15.89770     13.15490     17.18443         0.025880     -0.031865     -0.040762
Au     19.38977     13.48262     15.36597         0.050444      0.027684     -0.038543
Au     12.31618     17.00758     14.79374        -0.121393     -0.024365     -0.017923
Au     13.18774     17.21608     17.54893        -0.087955      0.142822      0.001431
Au     13.00048     19.47675     15.96476         0.067404     -0.111055      0.031550
Au     18.22706     17.87877     17.31354        -0.036842     -0.058492     -0.012818
Au     17.42232     20.27198     16.02855         0.121148     -0.000601      0.024814
Au     19.97719     16.20399     15.50660         0.010037     -0.108699      0.041707
Au     15.46806     18.86325     17.34379        -0.051866     -0.102021      0.020656
Au     16.21808     16.52087     18.75602         0.116890      0.067846      0.004462
Au     19.79739     19.09697     15.28722        -0.033335      0.074089      0.034420
Au     17.48872     17.08836     14.66835        -0.053439     -0.045309      0.005814
Au     15.34045     19.09298     14.55300        -0.095498      0.192821     -0.010964
Au     15.34404     16.09701     16.18207         0.071479     -0.015058     -0.062697
