38
# total energy = -101.80519392 eVAu     12.80904     14.37345     11.86309        -0.013954      0.010933      0.002852
Au     12.69367     11.81676     12.78685        -0.004291      0.005790      0.013829
Au     11.40279     13.80392     14.43000         0.000558     -0.008055     -0.012371
Au     17.35769     11.90268     13.34100        -0.003181      0.067666      0.009228
Au     14.92688     10.88592     14.15510         0.064251     -0.005083     -0.026010
Au     19.99308     15.52665     12.81395        -0.006911      0.011569      0.004611
Au     16.51344     14.92263     14.10008         0.090497     -0.089128     -0.047678
Au     15.42821     15.52340     11.08388        -0.031057     -0.002179      0.009707
Au     17.79510     14.13381     11.76211        -0.038570      0.013626     -0.008834
Au     15.17804     12.89296     11.97720        -0.011303      0.026349      0.013421
Au     13.00346     16.97066     11.04085        -0.010438     -0.016328      0.009728
Au     11.25816     16.32394     13.32183         0.041469     -0.005867      0.009193
Au     14.02951     16.21576     13.75146        -0.000315     -0.009890     -0.049350
Au     12.70859     18.70367     13.19946        -0.023301     -0.003748      0.027209
Au     17.53934     19.58668     12.84193        -0.038962     -0.019848      0.012086
Au     14.95685     20.08926     13.93510        -0.002558      0.000007      0.005626
Au     17.76210     16.92866     11.82418        -0.014255      0.003254     -0.002146
Au     15.29460     18.28542     11.78667         0.036138     -0.002670      0.001452
Au     19.92224     18.24758     13.22578         0.009060     -0.028460     -0.007424
Au     14.20861     13.54452     14.81229        -0.022959     -0.027852      0.006636
Au     12.42529     13.43844     17.02508         0.008617     -0.010429      0.005756
Au     11.93757     11.17824     15.37436        -0.027964      0.034705      0.016285
Au     13.29938     15.59342     18.50530         0.024645      0.001603     -0.035897
Au     17.79250     14.67729     17.08829        -0.028678     -0.002759      0.015094
Au     15.23403     13.50561     18.02094        -0.010122      0.010340      0.009541
Au     14.28928     11.24559     16.83644        -0.012274      0.007782     -0.005844
Au     16.76133     12.32639     15.99752        -0.013816      0.028039      0.003694
Au     18.94899     13.72052     14.69190        -0.018426      0.006671      0.034331
Au     12.02431     16.09453     16.03295         0.057085      0.005138     -0.022159
Au     13.32273     18.59312     15.87366         0.025136      0.018693     -0.009996
Au     17.48351     17.50145     17.34727         0.026231      0.002131     -0.025960
Au     18.55201     19.22350     15.41398        -0.039012     -0.020055      0.012234
Au     15.96581     19.72811     16.49775        -0.005777      0.000453     -0.001611
Au     14.67365     18.00057     18.18927        -0.036419     -0.001010     -0.001493
Au     19.14720     16.43230     15.34166        -0.005999      0.003527      0.009314
Au     16.36146     17.63613     14.54179         0.023374      0.029903     -0.004163
Au     16.17396     15.83578     19.09185        -0.016507     -0.014133     -0.003939
Au     15.04042     15.85378     16.31920         0.029987     -0.020685      0.033049
