38
# total energy = -101.84030134 eVAu     12.79615     14.33145     11.89318        -0.009196     -0.002368      0.008414
Au     12.75855     11.78569     12.97923         0.000676     -0.000539      0.022588
Au     11.40735     13.81733     14.44791         0.005692      0.006595     -0.022516
Au     17.57156     12.18711     13.29724        -0.036808      0.056948      0.022649
Au     15.19546     10.94197     14.05793         0.011900     -0.011446     -0.004501
Au     19.66098     15.39028     12.92506        -0.005117     -0.014998     -0.000893
Au     16.67862     14.85672     14.02513         0.054055     -0.001543     -0.022976
Au     15.28749     15.55417     10.95102        -0.009270      0.011149      0.017734
Au     17.64379     14.20874     11.41145         0.000505     -0.025674      0.001843
Au     15.18083     12.90676     11.96696         0.011396     -0.002039     -0.018434
Au     12.90131     16.97044     11.03397         0.018315      0.014669      0.037252
Au     11.30549     16.30739     13.33630         0.018115      0.013743      0.006113
Au     14.14802     16.15963     13.67379        -0.029542      0.017149     -0.020473
Au     12.72823     18.67475     13.22908        -0.021303      0.018344     -0.018671
Au     17.50495     19.55120     12.83085         0.014069      0.007479      0.018357
Au     14.98023     20.07375     13.93281        -0.006412     -0.002144     -0.010789
Au     17.67911     16.96213     11.69186        -0.007964      0.000785     -0.030854
Au     15.22657     18.31091     11.74198        -0.030264     -0.010883     -0.012913
Au     19.83398     18.12895     13.24161        -0.013906     -0.032988      0.000376
Au     14.26831     13.55484     14.79154         0.025354     -0.018913     -0.011908
Au     12.41757     13.45590     17.01321         0.022481      0.001866      0.015451
Au     11.65999     11.21255     15.48878         0.004188     -0.015858     -0.004026
Au     13.32478     15.58479     18.46034         0.008936      0.012805     -0.012673
Au     17.78261     14.66261     17.28177        -0.019895      0.017260      0.002784
Au     15.20240     13.47049     17.99819        -0.013398      0.002184      0.001337
Au     14.20471     11.26709     16.65263        -0.012962      0.007747     -0.020564
Au     16.77241     12.33774     16.00631         0.020798     -0.007623      0.004038
Au     19.07999     13.69581     15.05707         0.001903     -0.024830     -0.009119
Au     12.18355     16.16514     15.98120        -0.003886     -0.045427     -0.005810
Au     13.31966     18.72478     15.89405         0.019685     -0.008441     -0.009545
Au     17.46801     17.50978     17.42937        -0.015468     -0.015563      0.021969
Au     18.52764     19.18587     15.43146        -0.001478      0.012749     -0.018077
Au     15.98196     19.71601     16.48228         0.006375     -0.009426      0.010647
Au     14.66651     17.98086     18.14952        -0.001881      0.013083      0.030681
Au     19.17909     16.42754     15.49604         0.012309     -0.007004      0.028241
Au     16.40621     17.57538     14.51485        -0.004451      0.012903      0.003850
Au     16.10465     15.82456     19.16470        -0.006402      0.021828     -0.036918
Au     15.17613     15.79202     16.28132        -0.007148      0.008421      0.037335
