38
# total energy = -101.86735261 eVAu     12.15850     14.89444     11.03299        -0.016074     -0.016347      0.007409
Au     12.31957     12.92948     13.26825         0.004907      0.003228      0.015317
Au     11.31343     15.57012     13.58683        -0.027872      0.006569      0.006585
Au     14.17904     13.03441     11.03136         0.004287      0.007215     -0.011934
Au     15.17778     12.09247     13.47348        -0.035478     -0.009975      0.025571
Au     16.85669     15.47563     14.07015         0.023622     -0.012246      0.004065
Au     15.01209     15.90690     10.59290        -0.009802     -0.017645      0.015778
Au     14.26559     14.97714     13.11042         0.030281      0.005728     -0.050724
Au     19.22054     14.43078     12.62451        -0.012305      0.016086      0.016445
Au     17.65655     16.47481     11.46446         0.025232     -0.017071      0.006135
Au     16.71227     13.77538     11.70774         0.000935      0.009073      0.007909
Au     12.95720     17.40802     11.93675         0.002689      0.018281     -0.012032
Au     11.33279     18.35997     14.11469        -0.011210      0.008753     -0.009767
Au     13.71298     19.57241     13.54161         0.021224      0.024635     -0.019966
Au     18.25445     18.92955     12.61870         0.012769      0.003950     -0.000462
Au     20.21345     17.01279     12.87865         0.015281      0.004179     -0.019987
Au     16.26895     20.58416     13.60093        -0.022861      0.000758      0.022800
Au     15.59186     18.34782     11.82648        -0.018691      0.012704      0.008530
Au     13.83278     13.20383     17.87960         0.009124     -0.024002      0.002429
Au     11.90762     14.05601     15.89432         0.021215     -0.002310     -0.018522
Au     13.25819     11.68928     15.52469         0.014693     -0.007244     -0.005366
Au     13.12333     16.04678     17.72954         0.002721      0.004203      0.006103
Au     17.76618     12.79257     14.30242        -0.010776     -0.004857     -0.017803
Au     19.41778     15.47762     15.21299         0.033578     -0.004699      0.001080
Au     14.86322     14.57965     15.74809         0.001757     -0.010359      0.026820
Au     15.73673     15.32882     18.37451         0.002646      0.001743     -0.001651
Au     15.91779     11.98718     16.23274        -0.032906      0.015665     -0.001832
Au     17.65870     14.06724     16.81968         0.010577     -0.029928      0.018286
Au     13.66481     16.92472     14.93752        -0.016869      0.046967      0.041196
Au     10.85717     16.54471     16.18527         0.021088     -0.007126     -0.008431
Au     12.55827     18.72580     16.75073         0.013777     -0.014063      0.013725
Au     17.37845     19.60094     16.69715        -0.005673     -0.003843     -0.035111
Au     18.82905     20.90654     14.58277         0.004017      0.002770     -0.001339
Au     14.76126     20.25540     16.01860        -0.021132     -0.001362     -0.016756
Au     15.17766     17.99357     17.64399        -0.013999     -0.024259     -0.029379
Au     17.66645     16.82760     17.01420        -0.015893      0.006287      0.003230
Au     16.25027     18.00561     14.68114        -0.006911     -0.008746     -0.000052
Au     19.31718     18.23296     15.18852         0.002030      0.017288      0.011702
