38
# total energy = -101.84091021 eVAu     12.79352     14.33090     11.88948        -0.000185     -0.002520      0.007968
Au     12.75467     11.78671     12.97220         0.004510      0.003320      0.022207
Au     11.40592     13.81810     14.44948         0.002256      0.001038     -0.033068
Au     17.56206     12.18293     13.30040        -0.025587      0.029659      0.014206
Au     15.18667     10.94260     14.06156         0.004907     -0.015620     -0.004693
Au     19.67561     15.39541     12.92009        -0.004793     -0.005077      0.000387
Au     16.67138     14.85097     14.02731         0.033274      0.032203     -0.011269
Au     15.29270     15.55528     10.95190        -0.008937      0.001893      0.021705
Au     17.64811     14.20809     11.42344         0.008636     -0.009143     -0.010613
Au     15.18193     12.90785     11.96598        -0.014739     -0.000344     -0.017761
Au     12.90541     16.97012     11.03578         0.009840      0.004700      0.020806
Au     11.30608     16.30830     13.33683        -0.001890      0.006545      0.000455
Au     14.14270     16.15912     13.67310         0.012835      0.003747      0.007075
Au     12.73116     18.67144     13.23021        -0.028456      0.037569     -0.016682
Au     17.50519     19.55324     12.83124         0.015689      0.006148      0.018942
Au     14.97994     20.07277     13.93523        -0.008061     -0.001029     -0.023870
Au     17.68217     16.96331     11.69664        -0.002164     -0.007761     -0.027349
Au     15.22815     18.30892     11.74307        -0.016135      0.000351     -0.005573
Au     19.83828     18.13472     13.24091        -0.018342     -0.032115      0.002515
Au     14.26251     13.55234     14.79369         0.027841     -0.007386     -0.012161
Au     12.41516     13.45704     17.01337         0.027810     -0.007784      0.023284
Au     11.66735     11.21185     15.48563         0.005837     -0.015516     -0.004264
Au     13.32499     15.58592     18.45974        -0.002927      0.002468      0.002344
Au     17.78575     14.66442     17.27796        -0.021023      0.008886     -0.004001
Au     15.20307     13.46903     18.00232        -0.008498      0.000840     -0.002589
Au     14.20690     11.26598     16.66012        -0.012243      0.013281     -0.019848
Au     16.77366     12.33859     16.00659         0.004035     -0.008241      0.020890
Au     19.07499     13.69849     15.04563         0.016962     -0.012289     -0.002160
Au     12.18279     16.16287     15.98107        -0.006680     -0.035162     -0.002513
Au     13.31619     18.72498     15.89525         0.018404     -0.007213     -0.006493
Au     17.46822     17.50836     17.42711        -0.008317     -0.002448      0.011177
Au     18.52752     19.18792     15.43183         0.001327      0.012609     -0.021384
Au     15.98037     19.71560     16.48046         0.010998     -0.010719      0.022495
Au     14.66757     17.97822     18.14600        -0.007676      0.032673      0.037204
Au     19.17834     16.43011     15.49082         0.013242     -0.013172      0.021215
Au     16.40854     17.57458     14.51416        -0.021733     -0.019608      0.003658
Au     16.10659     15.82494     19.16042        -0.003186      0.009182     -0.020778
Au     15.17269     15.79108     16.28499         0.003172      0.006037     -0.011466
