38
# total energy = -100.83255664 eVAu     12.26185     14.98600     11.01748         0.080980     -0.105784     -0.003687
Au     12.35350     13.02177     13.18518         0.089672      0.032243     -0.008379
Au     11.29181     15.65989     13.54290        -0.083486      0.089190     -0.080873
Au     14.21470     12.97765     10.99003        -0.157075      0.082506     -0.119863
Au     15.11175     12.39214     13.61014        -0.085323     -0.375141     -0.047939
Au     17.10984     15.92848     13.80703         0.173556     -0.091702     -0.099462
Au     14.98583     15.74380     10.41416        -0.087481     -0.036467     -0.014757
Au     14.39834     15.13014     13.09500        -0.104962     -0.056015     -0.210045
Au     19.27997     14.23403     12.51297         0.158214      0.175279      0.017122
Au     17.76686     16.39401     11.08843         0.020487     -0.019287      0.095502
Au     16.67516     13.86046     11.80259         0.089535     -0.114947     -0.163733
Au     12.86838     17.48588     12.02139        -0.244810      0.008744     -0.195527
Au     11.17213     18.44039     14.08391        -0.123546     -0.070673      0.072577
Au     13.65690     19.52266     13.79106        -0.134117      0.106374     -0.115937
Au     18.11411     18.81480     12.63061         0.164047      0.103924     -0.010040
Au     19.97842     16.85593     12.95123         0.056113     -0.082743     -0.078027
Au     15.97680     20.54380     12.93333         0.180268      0.013155      0.013857
Au     15.53629     17.84208     12.08228         0.053093      0.404747     -0.285164
Au     13.98161     13.23755     17.78974         0.050739     -0.077704     -0.071721
Au     12.45058     14.31117     15.65145        -0.299257     -0.112334      0.234774
Au     13.24102     11.69069     15.52887         0.053223     -0.080466      0.029380
Au     13.17975     15.97364     17.78969        -0.152328     -0.050614      0.265046
Au     17.63986     13.13344     14.43069         0.218786     -0.228710      0.048435
Au     19.44356     15.20826     15.29111        -0.031252      0.038119     -0.085060
Au     15.36749     14.73042     15.65964        -0.030458     -0.169536      0.258846
Au     15.74489     15.29016     18.51359        -0.069668     -0.055614      0.072827
Au     15.95498     11.89338     16.28282        -0.082024      0.017356      0.022031
Au     17.75595     13.81398     17.16327         0.009350     -0.080277      0.026588
Au     13.69304     16.90365     15.01193        -0.250110     -0.013794      0.111920
Au     11.05851     16.68052     16.24749         0.010018      0.163342     -0.156230
Au     12.70014     19.08240     16.49307        -0.044074     -0.038210     -0.028271
Au     17.44243     19.27365     17.27809         0.062379      0.149578     -0.126873
Au     17.90033     20.66074     14.88782        -0.010000     -0.060714     -0.033470
Au     15.10316     20.51468     16.03071        -0.030463     -0.064166      0.003533
Au     15.04789     17.91872     17.47541         0.046955      0.134817      0.406664
Au     17.43099     16.53178     16.75932         0.242284      0.049187      0.224641
Au     16.14253     18.23991     14.81400         0.158289      0.314299      0.082203
Au     19.11530     18.10044     15.24096         0.102448      0.102036     -0.050888
