38
# total energy = -101.81583851 eVAu     12.78777     14.37303     11.86164        -0.013983      0.013802     -0.021523
Au     12.69155     11.82357     12.81868         0.024889     -0.048797      0.018107
Au     11.40835     13.80992     14.42906        -0.008001     -0.021708      0.040254
Au     17.35307     11.99051     13.35489         0.039783     -0.002029     -0.013886
Au     14.96364     10.86734     14.13783        -0.007629      0.039891      0.008485
Au     19.96810     15.52299     12.82315        -0.030858     -0.044599      0.006028
Au     16.55881     14.88245     14.07660        -0.047239      0.004142      0.020774
Au     15.40739     15.53239     11.08392        -0.017493      0.001394     -0.046831
Au     17.78102     14.15676     11.70033         0.013724      0.012076     -0.053261
Au     15.15445     12.90749     11.97557         0.019775     -0.018607     -0.018510
Au     12.98697     16.97563     11.04252         0.018854      0.013757      0.030270
Au     11.26486     16.31517     13.32282         0.026479      0.025138      0.004017
Au     14.06303     16.19532     13.73599        -0.041462     -0.002117     -0.073582
Au     12.68751     18.68928     13.21877         0.035035     -0.009321     -0.009014
Au     17.52645     19.57915     12.84678         0.043991     -0.014649      0.013186
Au     14.94856     20.06897     13.93584         0.013372      0.000438     -0.002209
Au     17.76863     16.94055     11.78551         0.004960      0.010690      0.010956
Au     15.29907     18.27604     11.78659        -0.069491      0.016684     -0.013403
Au     19.92584     18.24045     13.22321        -0.075963      0.015614      0.031853
Au     14.22424     13.52812     14.80464        -0.023470     -0.005179      0.008391
Au     12.43099     13.44519     17.02339        -0.035336     -0.014121     -0.027278
Au     11.89166     11.18790     15.39410        -0.032318      0.010822      0.012878
Au     13.30330     15.58617     18.49825         0.018230      0.025932     -0.012849
Au     17.77854     14.68443     17.10450         0.020958     -0.011951      0.039741
Au     15.22009     13.50292     18.03556         0.007433      0.008340      0.029479
Au     14.26722     11.26000     16.81694         0.001750     -0.041021     -0.041180
Au     16.74719     12.33798     16.01751         0.026360     -0.019708     -0.004908
Au     18.98350     13.72630     14.74993         0.040691      0.002554      0.033083
Au     12.07779     16.10533     16.01335         0.014087      0.020981     -0.003647
Au     13.32435     18.63232     15.87803        -0.024585     -0.007469      0.012030
Au     17.48620     17.49322     17.34215        -0.040816      0.006006      0.060089
Au     18.53804     19.21605     15.41720         0.022424     -0.003818     -0.041977
Au     15.95663     19.70764     16.49809         0.012378      0.000921     -0.005647
Au     14.64320     17.98972     18.18739         0.031309     -0.005478     -0.022780
Au     19.18002     16.43603     15.36655        -0.005038      0.008613     -0.007236
Au     16.38283     17.60311     14.52877         0.021787      0.033112     -0.005369
Au     16.16107     15.83961     19.10263        -0.004638      0.023110     -0.029712
Au     15.07290     15.83403     16.30332         0.020052     -0.023442      0.075182
