38
# total energy = -101.62356154 eVAu     13.96988     14.02980     11.65380         0.046406     -0.015814      0.044101
Au     12.89682     11.93204     13.10410         0.005523      0.001210     -0.012272
Au     11.66584     14.52485     13.60725        -0.026467     -0.022369     -0.007114
Au     15.64444     12.06291     12.87594        -0.005207      0.022978     -0.004599
Au     19.34809     14.98582     12.89348        -0.056685     -0.005828     -0.042769
Au     16.90114     14.33879     14.52525        -0.012491      0.000271      0.016914
Au     18.40500     12.37206     12.90150         0.003801      0.011663     -0.027215
Au     16.86058     14.25309     11.51602        -0.023892      0.016910      0.007672
Au     12.68712     16.53952     12.01223        -0.031655      0.001343     -0.058854
Au     13.06616     19.03787     13.15028        -0.008843     -0.006146      0.000897
Au     17.87797     19.50191     13.25856         0.027024      0.011813      0.053253
Au     15.15786     16.30248     10.59360        -0.010580      0.012803     -0.040009
Au     15.03657     16.21229     13.42414         0.002268      0.010031      0.045409
Au     17.69291     16.92641     11.62018        -0.012791     -0.014109     -0.016161
Au     15.52255     18.68194     11.98574         0.036563     -0.027983     -0.010955
Au     19.99141     17.63940     13.01450        -0.021318      0.023008      0.017419
Au     14.06829     14.84738     18.44698        -0.036854      0.046196     -0.005504
Au     14.12034     13.92361     14.83941         0.049046      0.024889     -0.006766
Au     13.13256     12.43026     17.51034         0.016613     -0.041116      0.000070
Au     11.41421     12.31420     15.33837        -0.020596     -0.000236      0.030376
Au     14.49316     11.20112     15.36183         0.006406     -0.022659      0.011247
Au     11.92796     14.82779     16.48999         0.015480      0.054817     -0.033770
Au     17.23178     11.63074     15.31160        -0.018933      0.011181      0.013200
Au     18.05272     14.94990     17.25045        -0.002023      0.006076     -0.038924
Au     15.88829     13.14743     17.19557         0.006177      0.002640     -0.007332
Au     19.41925     13.45589     15.33344         0.011725      0.010998      0.007670
Au     11.98549     17.05256     14.76490         0.007546     -0.046308      0.032520
Au     13.08104     17.19723     17.38720        -0.001457     -0.025548      0.062140
Au     13.04488     19.44532     15.87877        -0.025956      0.008225     -0.036256
Au     18.25807     17.77668     17.21498        -0.025761     -0.002745     -0.014650
Au     17.54816     20.27195     16.11302         0.010355     -0.017433     -0.025365
Au     19.93131     16.18189     15.45945         0.003317      0.012386      0.050645
Au     15.46780     18.75572     17.12622         0.020822     -0.008732      0.003524
Au     16.27171     16.51397     18.72243        -0.010253      0.021087     -0.009667
Au     19.87975     19.09750     15.29878         0.076128     -0.017875      0.024094
Au     17.36676     17.15516     14.56777        -0.026599     -0.011459     -0.015333
Au     15.37090     19.92785     14.47668         0.007640     -0.008859      0.019872
Au     15.35835     16.03871     16.18066         0.025521     -0.015309     -0.027507
