38
# total energy = -101.81746747 eVAu     12.77577     14.37148     11.85676         0.006140     -0.027382      0.001225
Au     12.69788     11.81599     12.83223        -0.000452      0.000123      0.005761
Au     11.40734     13.81128     14.43558        -0.009385     -0.013602     -0.000560
Au     17.36061     12.02595     13.35710         0.036364     -0.012888     -0.016342
Au     14.97558     10.86953     14.13313         0.036846      0.026815     -0.009625
Au     19.95161     15.51247     12.82803        -0.013682     -0.010055      0.004328
Au     16.56390     14.87084     14.07284         0.014074     -0.027355     -0.008098
Au     15.39702     15.53596     11.07561         0.011663     -0.013975     -0.053577
Au     17.77723     14.16906     11.66883        -0.029982     -0.005481     -0.022009
Au     15.14985     12.91017     11.97238         0.018518     -0.007767     -0.023226
Au     12.98495     16.98156     11.04635        -0.031577     -0.013034     -0.003946
Au     11.27301     16.31496     13.32723        -0.010569      0.004382     -0.007587
Au     14.07485     16.18655     13.72033        -0.018180     -0.018685     -0.006761
Au     12.68488     18.68388     13.22721         0.042873      0.029011     -0.016442
Au     17.52660     19.57421     12.84999        -0.025319      0.010285     -0.033739
Au     14.94983     20.06317     13.93692         0.016018     -0.005536     -0.008779
Au     17.76977     16.94412     11.77448        -0.030338      0.026141      0.000088
Au     15.29044     18.27557     11.78372         0.003556      0.049785      0.007394
Au     19.91405     18.23934     13.22757        -0.006434     -0.042463     -0.002414
Au     14.22486     13.52071     14.80365        -0.022687      0.027968      0.012342
Au     12.42612     13.44786     17.01995        -0.009273     -0.016083      0.005100
Au     11.86664     11.19299     15.40441        -0.026450     -0.007483      0.009548
Au     13.30624     15.58760     18.48991        -0.002108      0.002750      0.013647
Au     17.77739     14.68503     17.11747         0.042140     -0.025666      0.027228
Au     15.21499     13.49925     18.04668         0.001500     -0.025556     -0.009555
Au     14.26216     11.25664     16.80152        -0.003692      0.002009     -0.006041
Au     16.74674     12.33950     16.02320         0.025866     -0.011885      0.004922
Au     19.00290     13.73041     14.77791        -0.010038     -0.010132      0.032506
Au     12.10405     16.11438     16.00412        -0.014502     -0.004046      0.005851
Au     13.32052     18.64226     15.88133        -0.019225      0.026241      0.009044
Au     17.48191     17.49139     17.34985         0.003060      0.050192      0.003383
Au     18.53546     19.21259     15.41366         0.006089     -0.000232      0.041915
Au     15.95623     19.70242     16.49539         0.020044     -0.004027     -0.006937
Au     14.63493     17.98690     18.18175         0.046994      0.023560     -0.008518
Au     19.18865     16.43679     15.37454        -0.021577      0.021108      0.026362
Au     16.39104     17.59085     14.52350         0.002029      0.037742      0.005159
Au     16.15765     15.84624     19.10276        -0.020096     -0.014776      0.017528
Au     15.09117     15.82324     16.30409        -0.008207     -0.020004      0.010825
