38
# total energy = -101.83154177 eVAu     12.77469     14.33391     11.85767        -0.008796      0.017990      0.025114
Au     12.72239     11.80032     12.91680         0.016816     -0.010949     -0.014786
Au     11.39362     13.81421     14.43948         0.015703      0.013803      0.015482
Au     17.46371     12.13491     13.33200         0.027986      0.009439     -0.007842
Au     15.09720     10.93044     14.09402         0.019431     -0.034379     -0.010585
Au     19.81618     15.45087     12.87265        -0.044565     -0.025526      0.014265
Au     16.61520     14.83162     14.04637         0.030871      0.012205     -0.008391
Au     15.34078     15.55562     10.98018        -0.011709      0.003045      0.021526
Au     17.70366     14.20937     11.52484        -0.004767     -0.033091     -0.014883
Au     15.16066     12.91821     11.94708         0.027136     -0.031210      0.036267
Au     12.93888     16.95872     11.05199         0.013611      0.054141     -0.009367
Au     11.29582     16.31763     13.33320        -0.001273     -0.019732      0.006613
Au     14.12003     16.14569     13.68527        -0.011938      0.038655     -0.012904
Au     12.72749     18.67741     13.23175        -0.020971     -0.008901     -0.009568
Au     17.51223     19.56834     12.84865         0.017365      0.009774     -0.049708
Au     14.97690     20.06257     13.93502        -0.021984      0.011000      0.031730
Au     17.71584     16.96526     11.72967         0.009407     -0.004043     -0.010052
Au     15.25506     18.30408     11.76009        -0.038649     -0.033383     -0.019943
Au     19.86446     18.17404     13.23783         0.004920      0.009621     -0.001569
Au     14.22200     13.53035     14.80702         0.033646      0.019590     -0.011283
Au     12.41241     13.44881     17.02875         0.002048      0.024228     -0.018472
Au     11.74611     11.20034     15.45270        -0.029097     -0.001487      0.009869
Au     13.32068     15.59326     18.47082        -0.010630     -0.019426     -0.008601
Au     17.80244     14.67556     17.22630        -0.027276      0.010019     -0.001571
Au     15.20933     13.46326     18.03843        -0.015352      0.024528     -0.008095
Au     14.22121     11.26543     16.72141         0.025201     -0.018482     -0.001030
Au     16.77286     12.34129     16.03641        -0.012434     -0.017704     -0.049639
Au     19.04825     13.72898     14.93793         0.003768     -0.037726      0.000196
Au     12.16751     16.13274     15.98211        -0.009197      0.025179      0.008660
Au     13.29330     18.71956     15.90310         0.038410     -0.035713     -0.018234
Au     17.47592     17.51057     17.39598        -0.017298     -0.040164      0.029070
Au     18.52450     19.20811     15.42067         0.043834     -0.006634      0.025639
Au     15.97879     19.70526     16.48001        -0.038285      0.013912     -0.005637
Au     14.66368     17.98455     18.14835        -0.010144     -0.009249      0.016291
Au     19.18055     16.44247     15.44691         0.014265     -0.002564     -0.002107
Au     16.41486     17.55679     14.50872        -0.035914      0.016278      0.020254
Au     16.12047     15.82205     19.12336         0.019334      0.045623      0.009070
Au     15.14514     15.78050     16.28848         0.006525      0.031333      0.024221
