38
# total energy = -101.92809065 eVAu     13.74187     11.91355     13.65477         0.035451      0.016419     -0.016907
Au     13.90187     15.38983     10.52481         0.008696      0.037647      0.060800
Au     11.18782     15.89437     14.48510         0.002172      0.039514      0.050655
Au     12.60851     14.31523     12.65264         0.033261     -0.040998     -0.055809
Au     16.58317     12.17010     14.13984        -0.014962     -0.028461      0.034905
Au     19.25940     16.01485     14.54353         0.007616     -0.029165      0.058089
Au     16.66306     15.39114     10.62323         0.044959      0.018762     -0.039129
Au     15.21046     15.76126     13.30816        -0.033734     -0.026156      0.072601
Au     17.89610     14.25213     12.80107         0.028165     -0.014336     -0.005851
Au     15.36131     13.25245     11.84865        -0.011042      0.014396      0.043538
Au     12.80213     17.14489     12.39361         0.023509     -0.037942     -0.034911
Au     11.96580     18.55414     14.55878         0.050870      0.004774      0.055842
Au     17.02450     19.71939     12.54708         0.042002     -0.025417      0.019214
Au     16.73871     17.75903     14.72709        -0.072489      0.026200     -0.084687
Au     14.42661     19.24179     13.49648        -0.013131      0.015775     -0.041501
Au     18.06357     17.10094     12.22698         0.032915      0.041652      0.017790
Au     15.38076     17.78872     11.31108        -0.014518      0.034654     -0.033277
Au     19.24270     18.76774     14.20889        -0.047196     -0.014338      0.019186
Au     14.11008     14.12596     15.34333         0.048297      0.071098     -0.039152
Au     12.74677     12.67730     17.34438         0.013762     -0.008379      0.055074
Au     11.50020     13.08023     14.84168        -0.022509     -0.024821     -0.026410
Au     13.33705     15.24668     18.23495         0.031060     -0.012682      0.012635
Au     10.79120     14.64778     17.00922         0.018290      0.021501      0.010606
Au     18.14926     14.29244     17.83072         0.032967     -0.017204     -0.000456
Au     15.46256     13.42370     17.93975        -0.049771     -0.022908      0.032828
Au     16.69963     15.11067     15.62490        -0.096095      0.026202     -0.081666
Au     16.06760     16.13300     18.41501        -0.023871      0.009377      0.003459
Au     14.84770     11.32572     16.15901         0.036735     -0.013362      0.013936
Au     17.49242     11.72159     16.86248        -0.032455      0.016300      0.014776
Au     18.93612     13.38657     15.23365        -0.011371      0.035542     -0.034406
Au     13.95756     19.58802     16.21303         0.026413      0.013730     -0.009627
Au     11.72204     17.23410     16.94377        -0.013171      0.016929     -0.009235
Au     13.93709     17.92815     18.47567         0.008097      0.015745      0.060233
Au     18.87992     19.76879     16.72839        -0.059372     -0.062755     -0.022287
Au     16.49835     20.50408     15.20577         0.026095     -0.024175      0.040300
Au     16.36935     18.84417     17.51559         0.050341      0.020224      0.024835
Au     18.45754     16.98662     17.11910         0.020822      0.058956     -0.093071
Au     14.37477     16.85810     15.82889        -0.106807     -0.152294     -0.072922
