38
# total energy = -101.69184973 eVAu     13.97823     14.01201     11.66313        -0.001162      0.030245      0.001627
Au     12.89201     11.91673     13.14730         0.013918      0.005027     -0.003268
Au     11.64576     14.46878     13.60893        -0.033668     -0.025997      0.010844
Au     15.63456     12.05757     12.88156         0.014112      0.000879      0.008255
Au     19.28979     15.00739     12.87365         0.063907      0.058137      0.020688
Au     16.86571     14.36673     14.47328        -0.038442      0.061638      0.013895
Au     18.38171     12.39037     12.86865         0.014001     -0.020979      0.017715
Au     16.81508     14.26118     11.49589        -0.015724      0.007025     -0.042822
Au     12.56289     16.45489     11.92042        -0.013538     -0.035362     -0.011342
Au     13.17330     18.90643     13.09864         0.045919     -0.016579      0.012250
Au     17.94807     19.57767     13.36495         0.044839      0.035117     -0.006835
Au     15.11738     16.34726     10.63974        -0.008203     -0.002201     -0.001614
Au     14.86462     16.31190     13.46134         0.032016     -0.014809      0.039894
Au     17.72649     16.90823     11.51974         0.021233      0.006196      0.008366
Au     15.67551     18.72193     11.98110         0.014342      0.009865      0.014040
Au     19.92212     17.67356     13.08664        -0.011514     -0.066911     -0.038890
Au     14.05604     14.84693     18.45109        -0.027755     -0.006769     -0.016782
Au     14.12527     13.92120     14.83153         0.007908      0.040987      0.000821
Au     13.13160     12.38454     17.54417        -0.007447      0.020308      0.004078
Au     11.40512     12.31192     15.38468        -0.001904     -0.013504      0.027508
Au     14.52998     11.20475     15.38864        -0.051675      0.003170      0.000082
Au     11.96038     14.82628     16.51378        -0.025605     -0.012497     -0.023400
Au     17.25479     11.68717     15.32767         0.014057      0.001356     -0.024455
Au     18.01475     14.93184     17.23044         0.008729      0.052001      0.007862
Au     15.86771     13.15215     17.21098        -0.007034     -0.015006     -0.007183
Au     19.41533     13.49907     15.29500         0.004925     -0.019580     -0.004773
Au     12.01249     16.98826     14.74438         0.032445      0.027126      0.048992
Au     13.10297     17.21329     17.41069         0.004170      0.003214     -0.009220
Au     13.04317     19.40364     15.81774         0.009038     -0.008984     -0.027793
Au     18.23612     17.74966     17.17430        -0.021112     -0.027640      0.016829
Au     17.62256     20.24485     16.12809         0.006171      0.030890      0.026179
Au     19.92688     16.19770     15.50014        -0.032372     -0.005099     -0.038507
Au     15.48207     18.78170     17.11797        -0.026177     -0.014972     -0.001274
Au     16.23439     16.53465     18.70328         0.033701     -0.007162     -0.002633
Au     20.03733     19.09255     15.41792        -0.046454      0.005521     -0.004786
Au     17.32058     17.15025     14.46588        -0.029393     -0.050552      0.005138
Au     15.40767     19.92737     14.49903        -0.048671     -0.011179     -0.018511
Au     15.35668     16.05164     16.16304         0.062417     -0.022920     -0.000976
