38
# total energy = -101.83943189 eVAu     12.78465     14.32813     11.87568         0.011464      0.037253      0.009410
Au     12.74047     11.79234     12.94752         0.010973     -0.001959      0.020712
Au     11.39977     13.82020     14.44776         0.011505     -0.032953     -0.016540
Au     17.52176     12.16515     13.31365         0.009241     -0.013959     -0.006339
Au     15.15073     10.94135     14.07545         0.001465     -0.030875     -0.007466
Au     19.73387     15.41755     12.90031        -0.016732      0.000166      0.006590
Au     16.64297     14.84062     14.03700         0.053196      0.018467     -0.019918
Au     15.31234     15.55818     10.96009        -0.003305     -0.024141      0.026409
Au     17.66907     14.20721     11.46728         0.010239      0.012942     -0.027546
Au     15.17820     12.91260     11.95901        -0.040061     -0.005776     -0.003884
Au     12.92190     16.96760     11.04308        -0.027845     -0.018355     -0.006845
Au     11.30375     16.31141     13.33782        -0.014191      0.006237     -0.021937
Au     14.13244     16.15477     13.67750         0.005550     -0.009101      0.001290
Au     12.73634     18.66890     13.23228        -0.057903      0.040295     -0.012016
Au     17.50914     19.56221     12.83627        -0.012693     -0.028005      0.016566
Au     14.97691     20.06894     13.93795         0.017624     -0.002670     -0.022554
Au     17.69549     16.96496     11.71188         0.001206     -0.006448     -0.015870
Au     15.23470     18.30344     11.74811         0.039269      0.031409      0.016011
Au     19.85145     18.15273     13.23891        -0.022101     -0.017769      0.006538
Au     14.24427     13.54327     14.80006         0.016267      0.001231     -0.008468
Au     12.41148     13.45829     17.01978         0.020177     -0.040117     -0.006286
Au     11.69861     11.20653     15.47219         0.001422      0.007518      0.003398
Au     13.32271     15.58863     18.46095         0.006894      0.003381      0.028223
Au     17.79445     14.67147     17.26053        -0.016231     -0.023531     -0.029331
Au     15.20532     13.46306     18.01740         0.002851      0.033621     -0.005372
Au     14.21382     11.26477     16.68718        -0.009956      0.008193     -0.021611
Au     16.77582     12.34055     16.01508        -0.021080     -0.007065      0.027968
Au     19.06129     13.70978     15.00054         0.023676      0.007256      0.019073
Au     12.17799     16.14989     15.98082        -0.011032      0.010242      0.005720
Au     13.30509     18.72475     15.89954         0.016167     -0.017907     -0.010254
Au     17.46914     17.50509     17.41759         0.019898      0.036936     -0.026740
Au     18.52793     19.19824     15.42897        -0.016073     -0.021657     -0.013078
Au     15.97691     19.71190     16.47958         0.024707     -0.003386      0.003389
Au     14.66942     17.97763     18.13982        -0.030186      0.023795      0.061638
Au     19.17792     16.43673     15.47203         0.010704     -0.013346      0.009802
Au     16.41072     17.56122     14.51191         0.007318      0.062837      0.000315
Au     16.11455     15.82533     19.14311        -0.022425     -0.014410      0.022425
Au     15.16144     15.78767     16.28738         0.000001     -0.008348     -0.003421
