38
# total energy = -101.88391739 eVAu     13.76006     11.90737     13.64933        -0.002436     -0.026448      0.007225
Au     13.92972     15.41377     10.55173        -0.005679     -0.011420      0.004631
Au     11.20819     15.89203     14.48547         0.028919     -0.029536     -0.000680
Au     12.61558     14.28158     12.63097        -0.009662      0.046253     -0.026895
Au     16.57979     12.17794     14.15452         0.001889      0.015314     -0.032240
Au     19.25648     16.04153     14.56775         0.016886      0.037961     -0.045030
Au     16.68955     15.39961     10.58929         0.017744      0.006789      0.022377
Au     15.25674     15.81442     13.32771         0.003211      0.013326     -0.041470
Au     17.89444     14.27499     12.80853        -0.003027     -0.006295     -0.022349
Au     15.36104     13.28996     11.87367         0.028542      0.016266      0.011051
Au     12.81027     17.13042     12.40834        -0.016598     -0.051052     -0.023271
Au     11.95098     18.55617     14.55076        -0.036380      0.027617      0.026758
Au     17.03616     19.71456     12.57890        -0.015660     -0.003405     -0.001770
Au     16.87067     17.79857     14.75877        -0.097399     -0.021748     -0.011090
Au     14.43320     19.19397     13.53073         0.050426      0.024742     -0.026093
Au     18.06823     17.10549     12.20041         0.019280     -0.042942      0.002320
Au     15.38387     17.80778     11.29458         0.012622      0.015348      0.002616
Au     19.37231     18.78715     14.01735        -0.013997     -0.011121      0.034519
Au     14.08622     14.15498     15.31011         0.038327     -0.004560      0.028735
Au     12.74056     12.68753     17.34651        -0.053650     -0.015089      0.005090
Au     11.50656     13.06971     14.84157        -0.021757      0.003334      0.018336
Au     13.32357     15.23597     18.27426         0.015089      0.058518     -0.014273
Au     10.80313     14.67667     17.00630         0.015835     -0.029954     -0.010910
Au     18.12537     14.27257     17.85922        -0.027608      0.006040     -0.017125
Au     15.42099     13.39764     17.96440         0.037279      0.038984      0.018113
Au     16.68364     15.11012     15.63374        -0.054031      0.023411     -0.003946
Au     16.04375     16.10712     18.45602         0.032675     -0.019292     -0.025497
Au     14.82762     11.32239     16.16387         0.000998     -0.043738     -0.003416
Au     17.45623     11.74196     16.85073         0.015412      0.001231      0.022391
Au     18.92371     13.41953     15.24269         0.005521     -0.044157      0.009046
Au     13.88236     19.56421     16.26208         0.037407     -0.022825     -0.002913
Au     11.75603     17.24597     16.94309        -0.003867      0.011809      0.024560
Au     13.93469     17.91377     18.53034        -0.002953     -0.006987      0.002984
Au     18.82195     19.67731     16.54984        -0.021054      0.010200      0.024911
Au     16.37509     20.51503     15.22579         0.028767     -0.014464      0.014143
Au     16.34464     18.80512     17.50647         0.016503      0.002641      0.014279
Au     18.44857     16.95181     17.15552        -0.014095      0.010825     -0.001632
Au     14.41361     16.85851     15.81966        -0.023479      0.034426      0.016515
