38
# total energy = -101.82642668 eVAu     12.76173     14.35400     11.85093         0.040204      0.015990      0.014670
Au     12.70738     11.80670     12.86181         0.004061      0.003560      0.034895
Au     11.39917     13.81092     14.43951         0.005405      0.001574     -0.007899
Au     17.39483     12.08273     13.35200         0.037648     -0.008487     -0.016606
Au     15.02309     10.88880     14.11708         0.020980      0.030624     -0.004480
Au     19.90921     15.48825     12.84149        -0.059066     -0.013370      0.019909
Au     16.58365     14.84213     14.06101         0.038827      0.005412     -0.015544
Au     15.37936     15.54312     11.03352        -0.031022      0.010734     -0.006632
Au     17.75244     14.18947     11.60286        -0.025914     -0.000129      0.008395
Au     15.14968     12.91108     11.95653         0.013683      0.010371      0.009941
Au     12.96687     16.97983     11.05127        -0.005427     -0.038281      0.003538
Au     11.28030     16.31495     13.33040         0.022465      0.009064     -0.004881
Au     14.09699     16.16085     13.69844        -0.029446      0.023275     -0.004903
Au     12.69927     18.68718     13.23043         0.009689     -0.030043     -0.006409
Au     17.51927     19.57560     12.84047         0.006037     -0.020720      0.043862
Au     14.96072     20.05690     13.93961         0.013770      0.019638     -0.006986
Au     17.75270     16.95967     11.75271        -0.021344     -0.018545      0.004056
Au     15.27425     18.29095     11.77500        -0.001000     -0.010025     -0.009325
Au     19.89209     18.21321     13.23290        -0.012292     -0.006990      0.003516
Au     14.21772     13.52443     14.80735         0.007528     -0.013564     -0.004513
Au     12.41687     13.44724     17.02376         0.009587     -0.001741      0.000534
Au     11.80843     11.19504     15.42715         0.011419      0.005154     -0.002146
Au     13.30956     15.58897     18.48276         0.022672      0.009369     -0.009197
Au     17.79340     14.68022     17.16082        -0.017414      0.004772      0.025655
Au     15.20769     13.47994     18.05644         0.017205      0.023052     -0.033001
Au     14.24865     11.25642     16.77137        -0.023044      0.011711     -0.023837
Au     16.75708     12.33628     16.03561         0.007307      0.013522     -0.015879
Au     19.03009     13.73289     14.84472        -0.024171     -0.002599      0.014948
Au     12.14074     16.12476     15.99148        -0.019804     -0.007063      0.005473
Au     13.30536     18.67855     15.89249         0.002367      0.002821     -0.000763
Au     17.47817     17.50301     17.36955         0.005390     -0.011933      0.005467
Au     18.53696     19.21195     15.42491        -0.028759     -0.007931     -0.040886
Au     15.96274     19.69870     16.48522         0.015528      0.018870      0.001198
Au     14.64404     17.99157     18.17058         0.008865     -0.029892     -0.008547
Au     19.19181     16.44525     15.40490        -0.019639     -0.018041      0.007521
Au     16.39991     17.57064     14.51703         0.026476      0.040446     -0.006130
Au     16.14201     15.84468     19.10991        -0.010486     -0.036994     -0.005673
Au     15.12061     15.79618     16.29800        -0.018286      0.016390      0.030659
