38
# total energy = -101.55763567 eVAu     12.22806     14.90235     11.05166        -0.051269     -0.004569      0.009555
Au     12.40854     13.04331     13.32157        -0.018747     -0.016381     -0.067757
Au     11.41062     15.64212     13.62136        -0.057594     -0.077190     -0.006563
Au     14.21699     13.02798     11.00859         0.048210     -0.001384      0.065894
Au     15.17542     12.06642     13.46363        -0.027915      0.143465      0.016294
Au     16.97450     15.69905     13.90604         0.019489     -0.020364      0.053334
Au     14.98146     15.85248     10.53770        -0.003125      0.027372      0.057641
Au     14.38872     15.06172     13.13887        -0.101331     -0.078768      0.002273
Au     19.25823     14.40340     12.55768        -0.031631     -0.001967      0.074121
Au     17.66229     16.46980     11.28062        -0.022824      0.023800      0.037552
Au     16.73543     13.75520     11.72787        -0.084868      0.000615      0.014335
Au     12.90769     17.43802     11.90530         0.024814      0.003920      0.029543
Au     11.21937     18.40506     14.02425         0.025977     -0.065850      0.044662
Au     13.67896     19.47960     13.64413        -0.011360      0.024347     -0.091490
Au     18.13984     18.89466     12.61059         0.127648     -0.010992     -0.034425
Au     20.10241     16.98664     12.87894        -0.034693      0.080899      0.020585
Au     16.09127     20.62620     13.20784         0.054602     -0.013133      0.109273
Au     15.50647     18.33085     11.68239         0.003184     -0.032229      0.093420
Au     13.92014     13.21916     17.76001        -0.052563     -0.053935      0.033349
Au     11.90630     14.11753     15.95648         0.112884      0.017965     -0.083280
Au     13.22617     11.67006     15.50481         0.030997      0.007078      0.082868
Au     13.12139     15.99123     17.80891         0.016288      0.003235     -0.050735
Au     17.74203     12.91567     14.34341        -0.006916      0.057320     -0.009479
Au     19.37407     15.30445     15.25141        -0.046895     -0.003477      0.016784
Au     15.19926     14.62995     15.75330        -0.062096      0.038498     -0.030402
Au     15.71002     15.29923     18.51597         0.042941      0.014929     -0.126451
Au     15.91887     11.88730     16.17663        -0.037334      0.027795      0.020874
Au     17.67162     13.87851     17.02192         0.003087      0.111089     -0.036468
Au     13.72421     16.86238     15.09456         0.052361     -0.011066     -0.096877
Au     11.01190     16.70958     16.21219         0.054208     -0.043855     -0.000302
Au     12.68321     18.98703     16.48076        -0.092354     -0.060212      0.028358
Au     17.40488     19.42801     17.06936        -0.016870     -0.010767     -0.119501
Au     18.32200     20.80386     14.76930         0.132367      0.029168     -0.038796
Au     15.03772     20.36345     15.93010         0.035573      0.005947      0.069327
Au     15.08991     17.96371     17.65118         0.055123     -0.069275     -0.083775
Au     17.65017     16.66302     17.09452        -0.086889     -0.031526     -0.037301
Au     16.23998     18.13236     14.73614        -0.076594     -0.013261      0.031607
Au     19.10652     18.11176     15.19941         0.084116      0.002761      0.001954
