38
# total energy = -101.86942391 eVAu     13.76558     11.90273     13.65138        -0.018410      0.007008     -0.005597
Au     13.94260     15.41936     10.56023         0.007752     -0.007203     -0.023674
Au     11.22595     15.88502     14.48676         0.024227      0.006198      0.015382
Au     12.61438     14.27491     12.62012        -0.006323     -0.007548      0.007891
Au     16.57941     12.18411     14.15368        -0.003461      0.002122      0.003109
Au     19.25808     16.05690     14.56535        -0.003187     -0.023490     -0.000931
Au     16.70413     15.40528     10.58148        -0.019065      0.001474     -0.013104
Au     15.27321     15.83884     13.32038        -0.009002     -0.003636      0.014290
Au     17.89733     14.28092     12.80933         0.012739     -0.016068     -0.001396
Au     15.36761     13.31011     11.88684        -0.009664     -0.026722     -0.004686
Au     12.80601     17.11697     12.41481        -0.005346      0.017990     -0.006638
Au     11.94183     18.56163     14.54989        -0.002467      0.010030     -0.000031
Au     17.04027     19.71200     12.59003         0.011967     -0.019713     -0.002880
Au     16.88958     17.80744     14.76090        -0.030392     -0.003673     -0.007078
Au     14.44243     19.18173     13.53690        -0.031090     -0.004119     -0.005433
Au     18.07873     17.09521     12.19385         0.003943      0.022860      0.001634
Au     15.38747     17.81916     11.28659         0.011776     -0.003323     -0.004291
Au     19.41302     18.79114     13.95763        -0.037502      0.006893      0.042331
Au     14.08340     14.15846     15.30688         0.012257     -0.000180      0.005916
Au     12.72973     12.68773     17.34874         0.003754     -0.004559      0.005285
Au     11.50710     13.06805     14.84264         0.012847     -0.018879     -0.012891
Au     13.32249     15.24590     18.28368         0.008163     -0.026368     -0.028004
Au     10.81311     14.67923     17.00243        -0.008117      0.018423      0.011565
Au     18.11120     14.26842     17.86139         0.010755     -0.003295     -0.011254
Au     15.40811     13.39285     17.97686         0.003572      0.011741     -0.011343
Au     16.66693     15.11482     15.63601         0.031069      0.014435     -0.016562
Au     16.04734     16.09634     18.46358        -0.026883      0.015379      0.004982
Au     14.82029     11.31226     16.16688         0.016296     -0.003028      0.011557
Au     17.44609     11.75102     16.85270        -0.015801     -0.027107      0.006498
Au     18.91656     13.42494     15.24506         0.007689      0.012841      0.000803
Au     13.86783     19.55143     16.27737         0.002695      0.001042     -0.003157
Au     11.76648     17.25384     16.94990        -0.034067     -0.006996      0.006340
Au     13.93551     17.90995     18.55473         0.017448      0.011097     -0.001479
Au     18.79517     19.64645     16.49055         0.000124      0.019770      0.033911
Au     16.33888     20.51657     15.23896         0.042115     -0.009270      0.001830
Au     16.33568     18.79107     17.51281         0.029609      0.012652      0.004598
Au     18.44228     16.93993     17.16498         0.002582      0.014418     -0.014130
Au     14.41378     16.86249     15.81879        -0.012603      0.008804     -0.003365
