38
# total energy = -101.86217486 eVAu     12.12505     14.86500     11.06184         0.000085      0.013183     -0.047701
Au     12.30707     12.88788     13.27210        -0.006256      0.017842      0.005072
Au     11.27372     15.53859     13.58322         0.022464     -0.006893      0.024311
Au     14.17288     13.03431     11.02418         0.019733     -0.011621      0.002183
Au     15.16780     12.08865     13.47971         0.015062      0.013532      0.001808
Au     16.81310     15.54232     14.07282         0.016642     -0.034827     -0.005176
Au     15.01281     15.91821     10.61903        -0.023937     -0.011809     -0.022386
Au     14.23337     14.94706     13.11658         0.022259      0.006316      0.054080
Au     19.20022     14.48730     12.61803         0.010775     -0.041938     -0.011569
Au     17.65065     16.51125     11.46932         0.017501      0.009556     -0.014923
Au     16.68989     13.80911     11.73586         0.015671     -0.035440     -0.010582
Au     12.96736     17.40126     11.92427        -0.024057      0.001075      0.001014
Au     11.32400     18.33500     14.03978        -0.011952     -0.001113      0.029910
Au     13.70904     19.58014     13.57863         0.005257      0.012727     -0.012292
Au     18.26769     18.95851     12.60550        -0.007662     -0.003136     -0.006427
Au     20.24125     17.04729     12.85194        -0.015291     -0.009623      0.014902
Au     16.26585     20.62564     13.55495         0.009160     -0.007162      0.010817
Au     15.57774     18.37064     11.84735         0.016263      0.013147     -0.041455
Au     13.85643     13.15918     17.88996        -0.016130      0.004368     -0.001065
Au     11.95463     14.04537     15.89490        -0.037051      0.005853     -0.006534
Au     13.25291     11.65084     15.52374         0.003545      0.015417      0.010396
Au     13.13767     16.04437     17.72724        -0.012835      0.000811     -0.001926
Au     17.74243     12.86937     14.32642         0.002264     -0.021856     -0.006242
Au     19.38135     15.41698     15.21528         0.004328      0.020883      0.027511
Au     14.87677     14.56691     15.77021         0.006044      0.023393     -0.067043
Au     15.72651     15.31765     18.40117         0.023003      0.002748     -0.001105
Au     15.90964     11.97044     16.23380         0.024909      0.016609     -0.010074
Au     17.67229     14.01337     16.91207        -0.027232      0.008063     -0.035218
Au     13.70139     16.92436     14.92444        -0.007413     -0.046905     -0.003183
Au     10.92392     16.55009     16.15372        -0.028762      0.008879      0.025778
Au     12.59154     18.76775     16.64989        -0.012427      0.018824      0.032473
Au     17.41792     19.56358     16.74852        -0.017305      0.045393      0.000815
Au     18.82216     20.88510     14.60364        -0.024192      0.002944      0.000728
Au     14.83236     20.30980     16.01663        -0.002972     -0.022227      0.016467
Au     15.16581     17.98066     17.59943        -0.004266      0.012522      0.021893
Au     17.64115     16.78160     16.99921         0.015786     -0.013846      0.017359
Au     16.26047     18.07618     14.68318         0.005581     -0.004488      0.007491
Au     19.27980     18.18134     15.17083         0.023409     -0.001201     -0.000110
