38
# total energy = -100.17987350 eVAu     13.98451     14.14482     11.76355        -0.102900     -0.174013     -0.607252
Au     12.90616     12.00242     13.01570        -0.230114     -0.287755     -0.135441
Au     11.78450     14.67777     13.46062        -0.452529      0.018205     -0.104258
Au     15.62874     12.17905     12.98363         0.081266     -0.447620     -0.455958
Au     19.16742     15.06579     13.04307         0.390241     -0.204712     -0.394108
Au     16.83191     14.31333     14.52573         0.510856     -0.533107      0.108510
Au     18.40376     12.41662     12.95119         0.167841     -0.294786     -0.186800
Au     16.82016     14.31277     11.62598         0.217388     -0.241504     -0.582191
Au     12.88324     16.74864     11.91732        -0.199539     -0.066079     -0.222982
Au     12.91411     19.16801     13.22166        -0.335451      0.433077     -0.220906
Au     17.66948     19.39027     13.15792        -0.002080      0.310218     -0.269203
Au     15.19843     16.22164     10.41202        -0.021958      0.074428     -0.372187
Au     15.27211     16.16204     13.30971        -0.287751      0.205025     -0.382726
Au     17.53838     17.00122     11.72041         0.273264      0.016929     -0.633413
Au     15.22096     18.61611     11.79688         0.060487      0.310449     -0.320194
Au     19.90106     17.65221     12.98736         0.384017      0.181077     -0.129689
Au     14.13223     14.85304     18.48744        -0.101674     -0.123519      0.472081
Au     14.11535     14.02264     14.79548        -0.348615     -0.141047     -0.025061
Au     13.22376     12.52671     17.47799        -0.224990     -0.445231      0.495314
Au     11.58943     12.54211     15.29054        -0.428897     -0.249678     -0.060509
Au     14.41087     11.28023     15.33026         0.036536     -0.375706      0.111839
Au     12.09722     14.96052     16.54575        -0.599995     -0.142942      0.151136
Au     17.17231     11.59683     15.30398         0.141663     -0.377951      0.082454
Au     17.89530     15.13919     17.03410         0.409109     -0.204693      0.678298
Au     15.83959     13.29515     16.97643         0.168067     -0.355797      0.639912
Au     19.36118     13.45748     15.38941         0.228302     -0.125103      0.089484
Au     12.89943     16.84963     14.77790        -0.707853      0.373605      0.001574
Au     13.16698     17.24218     17.63501        -0.183378      0.125293      0.296663
Au     13.04300     19.38541     15.96540        -0.264667      0.403276      0.106103
Au     18.10331     17.85979     17.32039         0.444565      0.203637      0.321606
Au     17.28853     20.07886     15.83305         0.181370      0.742292      0.323143
Au     20.03774     16.15035     15.52290         0.300479     -0.011375      0.175069
Au     15.43635     18.81288     17.36019        -0.090314      0.324010      0.347051
Au     16.20344     16.54956     18.76920         0.109623     -0.020828      0.347690
Au     19.71497     18.94289     15.33441         0.419095      0.280769     -0.018506
Au     17.54176     17.03746     14.65779         0.316772      0.212172      0.052038
Au     15.30463     18.69858     14.56256        -0.209945      0.523390     -0.048205
Au     15.33478     16.12986     16.14250        -0.048292      0.085594      0.369621
