38
# total energy = -102.05360042 eVAu     13.73597     11.92218     13.66424         0.019804     -0.070913     -0.053741
Au     13.89985     15.38893     10.51884         0.030605      0.025608      0.106803
Au     11.17045     15.91593     14.50714         0.043351      0.036572      0.022402
Au     12.58074     14.31946     12.65709        -0.025694     -0.018610     -0.109140
Au     16.59069     12.13739     14.13743        -0.001116     -0.003248      0.019467
Au     19.27588     15.95974     14.54106         0.029465     -0.137364     -0.058757
Au     16.66610     15.40269     10.65983         0.073387      0.020664     -0.080392
Au     15.10619     15.65919     13.27273        -0.011552     -0.022756      0.090074
Au     17.91671     14.20605     12.76557         0.062184      0.011939      0.096937
Au     15.37681     13.21566     11.83463         0.011275     -0.019006     -0.004771
Au     12.78086     17.15889     12.36733        -0.027071     -0.031582     -0.012808
Au     12.05187     18.55294     14.59622        -0.016786     -0.037113      0.064716
Au     17.04207     19.70270     12.52036         0.005124      0.041164      0.041977
Au     16.42777     17.73482     14.58370        -0.105714     -0.004011     -0.013517
Au     14.38441     19.35353     13.37907        -0.075723      0.091025     -0.065560
Au     18.07722     17.11119     12.29131         0.005819     -0.043338      0.017907
Au     15.37326     17.77733     11.30710         0.004846      0.030517     -0.009139
Au     18.99318     18.70286     14.54556         0.119254      0.000758     -0.063952
Au     14.13732     14.05371     15.37405         0.153947      0.191472     -0.000857
Au     12.77250     12.66145     17.36770         0.040355      0.004597      0.030692
Au     11.48758     13.08970     14.82886        -0.022663     -0.043781      0.027039
Au     13.37514     15.26521     18.20147         0.003150     -0.029108      0.082645
Au     10.80027     14.60656     17.02145         0.025720      0.046038     -0.001064
Au     18.18279     14.34676     17.74789         0.037595      0.018421      0.029400
Au     15.51350     13.44882     17.94122        -0.056202     -0.031027      0.014369
Au     16.70487     15.14745     15.57420        -0.190200      0.120162     -0.141300
Au     16.11048     16.18050     18.33203        -0.066659      0.016387      0.010497
Au     14.89181     11.31611     16.17167        -0.007035      0.027928      0.038831
Au     17.53417     11.71157     16.90125        -0.047309     -0.019294      0.023041
Au     18.93245     13.33523     15.20390        -0.009456      0.031633     -0.076032
Au     14.13849     19.60039     16.13356         0.029375      0.015999     -0.078981
Au     11.65401     17.23543     16.98113        -0.036413      0.011530      0.024279
Au     13.96087     17.96643     18.40033         0.008220     -0.047533      0.040360
Au     18.93898     19.88078     17.01536         0.007748     -0.055467     -0.068875
Au     16.72668     20.46263     15.21182        -0.032601      0.047669      0.054257
Au     16.42384     18.92208     17.58409         0.067052     -0.001800      0.095493
Au     18.47051     17.06415     16.98229        -0.046139      0.025183      0.053070
Au     14.18924     16.79875     15.79756         0.000056     -0.199317     -0.145372
