38
# total energy = -101.02485612 eVAu     12.26425     14.96768     11.00682         0.009100     -0.010311      0.041718
Au     12.36309     13.02302     13.19099         0.109932      0.102898      0.113471
Au     11.26882     15.67111     13.52780         0.074280     -0.054338     -0.022646
Au     14.18789     12.97927     10.95478         0.076982      0.070977      0.077393
Au     15.10376     12.31168     13.59551         0.142738     -0.004257     -0.182482
Au     17.12512     15.91648     13.79907        -0.180460     -0.045361      0.069747
Au     14.97227     15.74760     10.39507         0.037619      0.064722      0.222323
Au     14.38448     15.12473     13.07890         0.136343     -0.044038      0.011772
Au     19.31761     14.25594     12.51012        -0.112655      0.007250      0.078105
Au     17.77180     16.39520     11.09685        -0.111256      0.001085      0.130844
Au     16.69724     13.82544     11.76854        -0.084410     -0.051441      0.116920
Au     12.82335     17.49634     11.97524         0.071786      0.033214     -0.003473
Au     11.13623     18.43549     14.08971         0.086767      0.045831     -0.046166
Au     13.63032     19.54984     13.75539        -0.003054     -0.116165     -0.023646
Au     18.15602     18.83646     12.62172         0.094135      0.004836     -0.000435
Au     20.00010     16.85159     12.93335         0.044015      0.071183     -0.017000
Au     16.00604     20.55293     12.92727        -0.000633     -0.014798      0.068232
Au     15.53919     17.92708     12.02093        -0.131607      0.072163     -0.185290
Au     13.98620     13.21710     17.78651         0.000585      0.023202     -0.056504
Au     12.37997     14.29045     15.69726        -0.201594     -0.068042      0.100903
Au     13.24334     11.66584     15.53419        -0.008085      0.040205      0.008544
Au     13.14623     15.96589     17.84979        -0.047742      0.034047     -0.023068
Au     17.68290     13.07641     14.43663        -0.017970     -0.036068     -0.108595
Au     19.44431     15.21583     15.28317        -0.100376      0.007367     -0.058019
Au     15.35711     14.71096     15.69209         0.007322      0.039745     -0.047914
Au     15.73135     15.28344     18.53857         0.026690      0.022663     -0.132643
Au     15.94645     11.88636     16.28733        -0.007597      0.051321     -0.071313
Au     17.76648     13.79325     17.17491        -0.105111      0.102566     -0.080866
Au     13.66181     16.88294     15.02848         0.111195      0.086587      0.091980
Au     11.05186     16.70578     16.22467         0.083113      0.020787      0.054670
Au     12.68422     19.09082     16.50332         0.138372     -0.133805     -0.126473
Au     17.46153     19.30309     17.26592        -0.053824      0.037325     -0.091564
Au     17.91091     20.66257     14.87959         0.061863      0.039718     -0.045773
Au     15.08579     20.52032     16.03997        -0.062051     -0.196571     -0.031624
Au     15.05758     17.94124     17.56827        -0.013841     -0.013063      0.048601
Au     17.48307     16.54790     16.80665        -0.015054     -0.021421      0.157239
Au     16.17413     18.27641     14.82114        -0.109138     -0.161326      0.023651
Au     19.14380     18.11865     15.23285         0.053621     -0.008685     -0.060619
