38
# total energy = -101.68580141 eVAu     13.97852     14.01679     11.66890         0.001410      0.006649     -0.002680
Au     12.89275     11.91696     13.14282         0.006160      0.006751      0.003555
Au     11.64853     14.47591     13.60857        -0.023916     -0.031627      0.007674
Au     15.63716     12.05488     12.88255         0.005296      0.009202      0.002498
Au     19.29478     15.00740     12.87416         0.042836      0.020054      0.014116
Au     16.87188     14.36673     14.48403        -0.019549      0.017693     -0.001499
Au     18.38385     12.38803     12.87334         0.012597     -0.004538      0.001292
Au     16.81798     14.26126     11.49860        -0.004798      0.003663     -0.025239
Au     12.57815     16.46551     11.93027        -0.015120     -0.024873     -0.004066
Au     13.15466     18.92517     13.10546         0.043272     -0.021249     -0.007414
Au     17.94040     19.56731     13.35311         0.030223      0.022180      0.013692
Au     15.12089     16.34316     10.63421        -0.005638      0.007237     -0.006911
Au     14.88957     16.29506     13.45748         0.000022      0.003116      0.026758
Au     17.71951     16.91348     11.53167         0.013181      0.004240      0.005690
Au     15.65247     18.71696     11.99197         0.031812      0.000211     -0.009366
Au     19.92652     17.66734     13.07941        -0.001101     -0.027518     -0.022695
Au     14.05214     14.84679     18.45101        -0.018647      0.013763     -0.012656
Au     14.12933     13.91613     14.83112        -0.002970      0.033447      0.003971
Au     13.13592     12.39094     17.53594        -0.013809      0.003013      0.011704
Au     11.40416     12.31447     15.38068        -0.002347     -0.020824      0.010057
Au     14.52333     11.19602     15.38465        -0.022576      0.013328     -0.000806
Au     11.96019     14.82646     16.50647        -0.026239      0.001572     -0.012703
Au     17.25228     11.68208     15.32616        -0.008066     -0.000693     -0.011662
Au     18.02150     14.93812     17.22970         0.006519      0.019328      0.005875
Au     15.87004     13.15539     17.20840         0.002887     -0.015716     -0.008091
Au     19.41844     13.49104     15.29652         0.002051      0.004717      0.003757
Au     12.01477     16.99560     14.74685         0.022578      0.011924      0.040366
Au     13.09743     17.21425     17.40964         0.012558      0.000686     -0.010628
Au     13.03853     19.41010     15.82004         0.008027     -0.008594      0.007936
Au     18.23661     17.75196     17.18043        -0.006415     -0.008733      0.002880
Au     17.62080     20.24437     16.11877        -0.017113      0.020914      0.019629
Au     19.92832     16.19586     15.49564        -0.022695     -0.011175     -0.026228
Au     15.47986     18.77730     17.11069        -0.018397     -0.000794      0.002683
Au     16.23593     16.53120     18.70257         0.024718     -0.002894      0.015253
Au     20.02802     19.09167     15.40936        -0.036352     -0.004144     -0.013591
Au     17.32836     17.14523     14.48051        -0.016961     -0.006154     -0.004910
Au     15.39850     19.93746     14.49743        -0.016703     -0.010125     -0.010387
Au     15.35504     16.04962     16.16627         0.033267     -0.024036     -0.007852
