38
# total energy = -100.39706827 eVAu     13.98079     14.13150     11.73676        -0.079738     -0.032211     -0.422430
Au     12.89870     11.97969     12.99149        -0.199056     -0.050797      0.174901
Au     11.75692     14.69321     13.45090        -0.210859     -0.219557      0.001671
Au     15.62591     12.16063     12.95776         0.152714     -0.325594     -0.234668
Au     19.18680     15.06376     13.01721         0.234941     -0.249927     -0.153192
Au     16.81166     14.33174     14.53369         1.201681     -1.185165      0.042949
Au     18.42019     12.39584     12.92366        -0.021432     -0.086684      0.136050
Au     16.82913     14.30385     11.60180         0.160064     -0.197925     -0.427164
Au     12.85737     16.74407     11.90190         0.112786     -0.019116     -0.075281
Au     12.89150     19.19677     13.20807        -0.103964      0.147368     -0.094192
Au     17.66366     19.41331     13.13780         0.080429      0.070473     -0.073693
Au     15.20036     16.21832     10.37943        -0.057547      0.148312     -0.019032
Au     15.28320     16.15425     13.34023        -0.698393      0.499499     -1.215754
Au     17.55261     16.99954     11.69410         0.154355      0.050400     -0.463573
Au     15.22750     18.64363     11.78114        -0.019032      0.017608     -0.200674
Au     19.92800     17.65398     12.96492         0.117056      0.219058      0.159052
Au     14.12784     14.84615     18.51333        -0.069205     -0.066960      0.242845
Au     14.13608     14.04505     14.79528        -0.935450     -0.632094     -0.035262
Au     13.21554     12.50440     17.51535        -0.160364     -0.273839      0.127462
Au     11.55088     12.52246     15.29271        -0.031135     -0.045430     -0.125834
Au     14.41787     11.24692     15.33592        -0.040363     -0.023005      0.069749
Au     12.06995     14.97607     16.55190        -0.421509     -0.451002      0.124409
Au     17.17464     11.56670     15.32253         0.151292     -0.069692     -0.151514
Au     17.90404     15.12714     17.05873         0.446646     -0.083407      0.553480
Au     15.85545     13.28798     16.99739        -0.024107     -0.393782      0.564137
Au     19.38774     13.44939     15.40843        -0.080495     -0.038408     -0.148365
Au     12.87363     16.84227     14.78303        -0.579007      0.657410     -0.088035
Au     13.14653     17.24204     17.65396         0.066342      0.183710      0.114975
Au     13.02439     19.41330     15.97485        -0.067134      0.109947     -0.004117
Au     18.11954     17.86434     17.34671         0.354129      0.201225      0.036605
Au     17.28017     20.11677     15.84953         0.363570      0.449914      0.195283
Au     20.06670     16.14127     15.53854        -0.020144      0.112315      0.014044
Au     15.43964     18.83847     17.37367        -0.177981      0.052301      0.268197
Au     16.21341     16.54673     18.79657         0.001848      0.014032      0.056331
Au     19.75019     18.96647     15.34241         0.063874      0.024241     -0.140389
Au     17.51233     17.02775     14.65604         1.019540      0.522306      0.109316
Au     15.31485     18.70992     14.55961        -0.461704      0.586458     -0.018864
Au     15.34143     16.11837     16.11806        -0.222648      0.378019      1.100578
