38
# total energy = -101.37164984 eVAu     12.81945     14.39382     11.91353        -0.090502     -0.222913     -0.055058
Au     12.70197     11.77894     12.66550         0.056060      0.061247      0.215074
Au     11.30991     13.79723     14.36209         0.148098     -0.100823      0.061347
Au     17.45196     11.68763     13.27409        -0.041432      0.180660      0.041940
Au     14.94330     10.83853     14.14233        -0.077247      0.210400      0.059652
Au     20.08291     15.48457     12.77323        -0.108002      0.087143      0.054438
Au     16.50251     14.85482     14.09416        -0.332921      0.263374      0.168401
Au     15.42638     15.49616     11.20499         0.009853      0.045802     -0.241083
Au     17.83927     14.04618     11.78117         0.009178      0.039527      0.095148
Au     15.23299     12.92621     12.16136        -0.105150     -0.175888     -0.165920
Au     12.98270     16.96428     11.02932         0.014491      0.145019      0.052748
Au     11.25825     16.37894     13.33492         0.026063     -0.027711     -0.018780
Au     14.03237     16.24394     13.69124         0.317865      0.014759      0.293055
Au     12.70027     18.79847     13.16472         0.053035     -0.125848     -0.024307
Au     17.51943     19.64501     12.84733         0.043280     -0.131248      0.063921
Au     14.94420     20.23491     13.92761         0.000688     -0.169219      0.001513
Au     17.67785     16.84562     12.12033         0.170900      0.092933     -0.250084
Au     15.26813     18.29760     11.81882         0.066155      0.065302     -0.000801
Au     19.90443     18.23946     13.23166        -0.059548     -0.023114      0.020615
Au     14.09667     13.57417     14.86112         0.021765     -0.078507     -0.019689
Au     12.40109     13.40660     17.13286         0.058659     -0.067177     -0.165224
Au     12.05946     11.25752     15.33699         0.043592      0.083887     -0.006067
Au     13.29528     15.64997     18.50836         0.028835     -0.029022     -0.011206
Au     17.70757     14.67980     16.99853         0.172365     -0.014586      0.173660
Au     15.20953     13.53847     17.98389        -0.048499     -0.237984      0.046475
Au     14.37229     11.18125     16.90725        -0.097693      0.114397     -0.173461
Au     16.68145     12.40777     15.84010         0.017300     -0.218430      0.143304
Au     18.96060     13.64472     14.62852        -0.053829      0.062239     -0.063317
Au     12.18227     15.95538     15.95057        -0.297192      0.104280      0.131672
Au     13.54851     18.41443     15.75907        -0.153439      0.221488      0.093037
Au     17.44426     17.51879     17.34561         0.055281      0.069029     -0.029227
Au     18.53933     19.27983     15.43761        -0.023538     -0.107843     -0.104707
Au     15.97522     19.86597     16.54648        -0.016407     -0.164322     -0.042179
Au     14.69953     18.08291     18.24181         0.043933     -0.121999     -0.049126
Au     18.87889     16.41564     15.17040         0.302558      0.045932      0.082519
Au     16.31357     17.74530     14.57611        -0.181989     -0.158572      0.049472
Au     16.16542     15.82518     19.11201        -0.010778      0.153257     -0.011778
Au     15.08561     15.86708     16.36630         0.038212      0.114533     -0.415978
