38
# total energy = -101.38896138 eVAu     12.25454     14.94789     11.02177        -0.012497     -0.079103      0.049052
Au     12.46662     13.10673     13.30406        -0.151090     -0.137811     -0.031405
Au     11.36289     15.66500     13.59368         0.017358     -0.033847     -0.040391
Au     14.22430     13.01266     10.97936        -0.074958      0.024079      0.011519
Au     15.17034     12.12325     13.48160        -0.013215      0.020128      0.028075
Au     17.00011     15.80210     13.86837         0.006775     -0.073846      0.003936
Au     14.97905     15.81436     10.51569        -0.004563      0.007119     -0.035429
Au     14.41470     15.09525     13.12441        -0.022687     -0.017388      0.018506
Au     19.27282     14.33124     12.55365        -0.013929      0.077571     -0.017266
Au     17.68326     16.44171     11.24715         0.022997     -0.018913     -0.034240
Au     16.71376     13.75237     11.76553         0.060960      0.057509     -0.031084
Au     12.84993     17.47431     11.91574         0.052224     -0.036645      0.009194
Au     11.17300     18.43134     14.03332         0.033888     -0.033622      0.034621
Au     13.64861     19.49322     13.65504         0.056952      0.028299      0.066303
Au     18.18612     18.86197     12.61573        -0.109184      0.081809      0.013557
Au     20.08369     16.92474     12.88227        -0.007466      0.005558      0.019456
Au     16.04430     20.57996     13.05093         0.060525     -0.000093      0.156293
Au     15.50086     18.19759     11.77207         0.021977      0.074073      0.012218
Au     13.94807     13.23450     17.73798         0.009975     -0.031755      0.054864
Au     12.04427     14.19003     15.89583        -0.017345     -0.068350     -0.028367
Au     13.25448     11.67150     15.50251        -0.056915     -0.004039      0.028980
Au     13.10731     15.98578     17.85871         0.038479     -0.009773     -0.053623
Au     17.72750     12.95577     14.37437        -0.006600     -0.002443     -0.020037
Au     19.34542     15.25854     15.23797         0.124456      0.042872      0.027338
Au     15.29071     14.67843     15.74195        -0.097856     -0.048298     -0.051260
Au     15.72366     15.30749     18.49923        -0.053499     -0.054277      0.067064
Au     15.92860     11.88838     16.18557         0.004330      0.025022      0.059018
Au     17.68691     13.86498     17.06864         0.017287     -0.077327      0.008028
Au     13.72482     16.84096     15.09150        -0.052015      0.073472     -0.018747
Au     11.05676     16.74334     16.21442        -0.058819     -0.054117     -0.005163
Au     12.69975     19.00102     16.46508         0.023805      0.030637      0.016504
Au     17.40672     19.37600     17.15382         0.048422      0.024127     -0.077822
Au     18.09558     20.73724     14.79986         0.195616      0.026657      0.005123
Au     15.07052     20.38104     15.99458        -0.088216      0.025881     -0.084313
Au     15.07178     17.93609     17.70198         0.008217      0.078972     -0.137925
Au     17.60589     16.63410     16.99976         0.013220      0.039537      0.025800
Au     16.18822     18.17501     14.79492         0.084719      0.002620     -0.074495
Au     19.14077     18.10724     15.20032        -0.061328      0.035704      0.026118
