38
# total energy = -101.54154957 eVAu     13.73140     11.78856     13.60126         0.076884      0.152258      0.058244
Au     13.97542     15.47446     10.53584         0.035327     -0.022657      0.088309
Au     11.74007     15.85525     14.67621        -0.315915      0.025616     -0.182164
Au     12.70700     14.23916     12.60226        -0.090050     -0.003135     -0.020269
Au     16.44588     12.39544     14.28100         0.101837     -0.139486     -0.122920
Au     19.31550     16.09422     14.56090        -0.112090     -0.054879     -0.030045
Au     16.72794     15.36108     10.53410        -0.025181      0.088073      0.073259
Au     15.27160     15.85994     13.30152         0.045665      0.026551      0.149694
Au     17.86154     14.34109     12.86378         0.050735     -0.071156     -0.054656
Au     15.35369     13.28963     11.85759         0.019081      0.049055      0.066687
Au     12.79650     17.14028     12.39130        -0.016170      0.008254      0.038916
Au     11.92501     18.62313     14.57243         0.030105     -0.077845      0.022214
Au     17.02094     19.71100     12.62651         0.004876     -0.090488     -0.003789
Au     16.93328     17.79285     14.76996         0.017094      0.023095      0.022703
Au     14.50320     19.00179     13.64778        -0.072644      0.125631     -0.097763
Au     18.05043     17.09280     12.17121         0.033021     -0.016727     -0.045363
Au     15.41284     17.84257     11.21420         0.023223     -0.088684      0.063277
Au     19.47875     18.80707     13.82764        -0.048158      0.013947      0.071743
Au     14.08267     14.08292     15.29093         0.126510      0.100776      0.019386
Au     12.65644     12.64278     17.39556         0.047307      0.106256     -0.088092
Au     11.51602     13.01063     14.84604         0.068878      0.084987      0.066856
Au     13.33019     15.27544     18.04982         0.042990     -0.020104      0.164003
Au     10.77067     14.71155     17.01382         0.050570     -0.009167      0.009203
Au     18.12707     14.24468     17.90388        -0.096105     -0.004211     -0.078632
Au     15.39398     13.38267     17.87938        -0.074338      0.007019      0.046937
Au     16.69385     15.07946     15.63242        -0.155799      0.160932     -0.115745
Au     16.01837     16.09886     18.35675         0.007939     -0.025810      0.135434
Au     14.74781     11.20794     16.18471         0.058722      0.093853      0.008905
Au     17.40973     11.72971     16.84138         0.036893      0.028095      0.021745
Au     18.98154     13.44314     15.28867        -0.142346      0.021572     -0.015090
Au     13.77199     19.63713     16.39334         0.034193     -0.203365     -0.033702
Au     11.66770     17.38636     17.06891         0.068671     -0.082062     -0.070447
Au     13.92344     17.92804     18.63563         0.030919     -0.038845     -0.141596
Au     18.70009     19.57296     16.35678         0.053659      0.029082     -0.012205
Au     16.22216     20.55977     15.26216         0.051020     -0.116996      0.033630
Au     16.28908     18.78632     17.50135         0.023514      0.020909      0.022164
Au     18.45759     16.91362     17.17854        -0.089086     -0.000503     -0.018469
Au     14.38416     16.91088     15.80554         0.098248     -0.099842     -0.052360
