38
# total energy = -101.86615009 eVAu     12.14070     14.88277     11.03548         0.018150     -0.005599      0.021672
Au     12.30707     12.90642     13.27291         0.018435      0.012191     -0.016954
Au     11.29124     15.54512     13.58077         0.009591      0.035732      0.009337
Au     14.17707     13.02975     11.02950        -0.007382      0.016492      0.009648
Au     15.17749     12.07599     13.47190        -0.003341      0.026391     -0.006573
Au     16.82967     15.51056     14.07219         0.025930     -0.011057     -0.000809
Au     15.00683     15.90925     10.61391         0.012341      0.006679     -0.011176
Au     14.24735     14.95727     13.11415        -0.004714     -0.000071     -0.033921
Au     19.21298     14.45175     12.61304         0.015913      0.011072      0.010507
Au     17.65777     16.49240     11.47092        -0.013653     -0.002018     -0.008539
Au     16.70309     13.78844     11.72404        -0.016407     -0.002344     -0.011067
Au     12.95906     17.40854     11.93036         0.006974     -0.006232      0.006388
Au     11.32509     18.34162     14.07735         0.020699     -0.003546      0.020676
Au     13.71465     19.57275     13.56867        -0.008257     -0.005332     -0.019334
Au     18.26862     18.94529     12.60933        -0.019037     -0.005746      0.011382
Au     20.23019     17.02131     12.86442        -0.011465      0.008891      0.010242
Au     16.26710     20.60384     13.57818        -0.001997     -0.018631      0.005807
Au     15.58671     18.36540     11.83064        -0.000151     -0.016858      0.013941
Au     13.84814     13.18249     17.88393        -0.007101      0.014643     -0.002089
Au     11.91831     14.04682     15.89496         0.019669     -0.002336      0.005355
Au     13.26773     11.67847     15.52251        -0.029735     -0.009338      0.005354
Au     13.12905     16.05393     17.72299        -0.009017     -0.014765      0.006885
Au     17.75864     12.83795     14.31085        -0.011340     -0.028201      0.012918
Au     19.39507     15.44053     15.21065         0.002481      0.023379      0.007193
Au     14.85830     14.56943     15.75039         0.018321     -0.013553      0.044064
Au     15.72676     15.33532     18.38325         0.011703     -0.020256     -0.003833
Au     15.91920     11.98274     16.22574         0.004506     -0.002982      0.011050
Au     17.65778     14.04046     16.87192         0.013117      0.027762     -0.025649
Au     13.68498     16.92341     14.93119        -0.033435      0.031060      0.002157
Au     10.88437     16.54320     16.16950         0.009006      0.020917     -0.005433
Au     12.57923     18.74681     16.70641        -0.026411     -0.025864     -0.005305
Au     17.40929     19.59537     16.72448        -0.029525     -0.011725     -0.006900
Au     18.81939     20.89871     14.59651         0.017343      0.004690     -0.009924
Au     14.80203     20.27798     16.02710        -0.009639      0.006031     -0.016783
Au     15.17352     17.99921     17.64119         0.010610     -0.012186     -0.019394
Au     17.64917     16.81160     16.99894         0.009965     -0.025076      0.014312
Au     16.25947     18.04351     14.69164        -0.004668     -0.002277     -0.022662
Au     19.30353     18.20672     15.17745         0.002520      0.000064     -0.002543
