38
# total energy = -102.10530153 eVAu     13.74169     11.89952     13.65336        -0.000694      0.094771      0.019540
Au     13.92623     15.40611     10.54849         0.016534     -0.040257      0.042665
Au     11.18311     15.92203     14.50996         0.056249     -0.046163      0.032161
Au     12.55250     14.30008     12.63144         0.002725     -0.032077      0.021353
Au     16.59387     12.13137     14.14320        -0.041936     -0.008718      0.011788
Au     19.28989     15.93212     14.53689         0.016771     -0.007840      0.002345
Au     16.69268     15.41262     10.64165         0.053139     -0.035854     -0.001790
Au     15.09120     15.64138     13.27244        -0.024070      0.029495     -0.102753
Au     17.92477     14.20603     12.76681        -0.009763     -0.000518      0.011159
Au     15.39152     13.20959     11.83088         0.027912      0.014691      0.007292
Au     12.76751     17.15845     12.36222        -0.015349     -0.001686      0.047697
Au     12.06543     18.54719     14.61713        -0.032580     -0.006444      0.009586
Au     17.04692     19.70323     12.54015        -0.022138      0.071725      0.012908
Au     16.37735     17.76242     14.55778        -0.043399      0.054732     -0.013896
Au     14.34960     19.39637     13.33336        -0.058386      0.025397     -0.015080
Au     18.07200     17.11035     12.30404         0.031638     -0.046375      0.032670
Au     15.37940     17.78295     11.30365         0.008194      0.033406      0.040503
Au     19.00253     18.68063     14.54979        -0.008039     -0.047747     -0.032386
Au     14.15359     14.05784     15.36786         0.034281     -0.107660      0.014979
Au     12.78451     12.66792     17.37337         0.007504      0.020961      0.005584
Au     11.48887     13.07903     14.83642         0.075807      0.014413     -0.019139
Au     13.37536     15.25575     18.23773        -0.019886      0.026156      0.022538
Au     10.81330     14.61861     17.02526         0.026814     -0.024513     -0.024596
Au     18.17755     14.36791     17.73298        -0.018894     -0.022115     -0.069434
Au     15.51992     13.44816     17.95895        -0.070262     -0.020002     -0.014384
Au     16.68980     15.19216     15.54616         0.000765      0.031981      0.018179
Au     16.09154     16.18124     18.32566         0.032049     -0.022280      0.014857
Au     14.88956     11.31922     16.18558        -0.017308      0.046924     -0.028231
Au     17.52369     11.71080     16.91184         0.020834      0.027385     -0.010878
Au     18.92640     13.32444     15.19632        -0.054780     -0.011284      0.030545
Au     14.17165     19.58118     16.11643         0.053822      0.002371     -0.084426
Au     11.63846     17.24163     17.00989         0.034280      0.014119     -0.021674
Au     13.97013     17.95610     18.38432        -0.028588      0.005349      0.011173
Au     18.94647     19.87171     17.01807         0.057998     -0.024497     -0.086939
Au     16.73692     20.46320     15.23080         0.020734      0.048974      0.055038
Au     16.44379     18.93106     17.62142        -0.039301      0.014730      0.066769
Au     18.45323     17.07083     16.97637         0.004399     -0.015841     -0.010534
Au     14.15261     16.77399     15.76236        -0.077076     -0.055708      0.004810
