38
# total energy = -101.99341933 eVAu     13.73517     11.93282     13.66380         0.016105     -0.044589      0.006225
Au     13.88099     15.37436     10.51510         0.125512      0.102215      0.026450
Au     11.17470     15.90935     14.50373         0.002940     -0.010311     -0.017295
Au     12.60936     14.33201     12.66078        -0.105354     -0.102490     -0.003390
Au     16.58344     12.15143     14.13660         0.020268     -0.026110      0.020759
Au     19.26406     15.97368     14.53025         0.036302      0.052191      0.120948
Au     16.65663     15.39106     10.65229         0.049380      0.045328     -0.018766
Au     15.14407     15.69876     13.29064        -0.021124     -0.016084     -0.083429
Au     17.91612     14.22156     12.79525        -0.061892     -0.000670     -0.152404
Au     15.36181     13.22851     11.84052         0.059221      0.011287      0.004134
Au     12.79210     17.14981     12.38021        -0.004115      0.023048     -0.034977
Au     12.00976     18.54956     14.57896         0.090982      0.033031      0.035274
Au     17.03189     19.71892     12.51786         0.027393     -0.073391      0.067796
Au     16.54205     17.72073     14.64252        -0.038113      0.162484     -0.064745
Au     14.41069     19.30305     13.44097        -0.050559      0.051363     -0.126844
Au     18.08184     17.09588     12.26911        -0.058984      0.091534     -0.022623
Au     15.37005     17.78284     11.31215         0.034293     -0.011762     -0.019649
Au     19.07446     18.73770     14.43638        -0.008771     -0.061231     -0.007055
Au     14.14669     14.10004     15.37553        -0.200635     -0.240475     -0.095593
Au     12.76463     12.66166     17.36050        -0.010347      0.038897     -0.013112
Au     11.49016     13.09055     14.82938         0.036706     -0.022750      0.004466
Au     13.36366     15.26488     18.19273        -0.004154     -0.030865      0.111483
Au     10.79174     14.61327     17.01244         0.032083      0.048896      0.036584
Au     18.18607     14.31515     17.78604        -0.109231      0.073115     -0.082363
Au     15.47780     13.43434     17.92386         0.124232      0.044599      0.117062
Au     16.68088     15.11853     15.58940         0.232573      0.069843      0.059974
Au     16.10713     16.17029     18.36241        -0.074383     -0.050676     -0.005415
Au     14.87901     11.32559     16.16155        -0.013997     -0.039672      0.019300
Au     17.52557     11.71273     16.88429        -0.027661      0.028590      0.017022
Au     18.93420     13.36395     15.20564        -0.009065     -0.065573      0.083952
Au     14.06674     19.62145     16.14926         0.055320     -0.177110      0.091931
Au     11.68176     17.23192     16.94666        -0.004128      0.018751      0.122663
Au     13.94552     17.95602     18.44447         0.037790     -0.014292     -0.121393
Au     18.92238     19.85002     16.92082        -0.036448     -0.062346     -0.044431
Au     16.64901     20.48599     15.20462         0.014620     -0.087633      0.024958
Au     16.40021     18.89274     17.55363         0.026943      0.020208      0.017604
Au     18.47413     17.03950     17.03795        -0.034357     -0.004327     -0.100708
Au     14.26907     16.79453     15.81275        -0.149347      0.226977      0.025606
