38
# total energy = -101.83915025 eVAu     12.80419     14.33122     11.91343        -0.007615     -0.024597     -0.004417
Au     12.77815     11.77808     13.01995         0.013292     -0.012014      0.000446
Au     11.41743     13.81582     14.44075         0.009718      0.004217      0.020899
Au     17.60437     12.23026     13.29037        -0.042209      0.036515      0.022043
Au     15.24457     10.93636     14.03819         0.002108     -0.007036     -0.001509
Au     19.58611     15.35625     12.94941        -0.013636     -0.031219     -0.000824
Au     16.72812     14.88034     14.00834        -0.041634      0.030129      0.021865
Au     15.26206     15.55314     10.94924         0.009989      0.009147     -0.008448
Au     17.61947     14.20150     11.35312         0.004950      0.002535     -0.012964
Au     15.18539     12.90052     11.96509        -0.000094     -0.002472     -0.031738
Au     12.88557     16.97893     11.03808        -0.000960      0.001206      0.015911
Au     11.31209     16.31034     13.33850         0.008613      0.019470      0.028339
Au     14.15814     16.16890     13.66833        -0.012800      0.006304      0.012201
Au     12.71169     18.69233     13.22054         0.019862      0.018122      0.017007
Au     17.50462     19.54368     12.83102        -0.006262      0.001119     -0.010208
Au     14.98042     20.07706     13.92273        -0.000762     -0.003947      0.017778
Au     17.65892     16.95941     11.65881        -0.000183      0.004494     -0.011263
Au     15.21048     18.31665     11.73193         0.008176      0.010952     -0.004848
Au     19.81065     18.08929     13.24439        -0.015635     -0.029955      0.004274
Au     14.30636     13.56306     14.77704         0.036919      0.013287     -0.010157
Au     12.43151     13.45349     17.01108        -0.008832      0.011367     -0.018269
Au     11.62357     11.21280     15.50363        -0.001075     -0.004786     -0.001182
Au     13.32799     15.58806     18.45592        -0.008839      0.028875     -0.021610
Au     17.76528     14.65879     17.30098         0.014918      0.005368     -0.000633
Au     15.19458     13.47571     17.97941        -0.002456     -0.022744      0.003409
Au     14.19157     11.27202     16.60901         0.012778     -0.010621     -0.015105
Au     16.77712     12.33180     16.00309         0.019662     -0.007839      0.023527
Au     19.10155     13.67309     15.11196         0.007673     -0.001320      0.008427
Au     12.18799     16.16054     15.97897         0.010164     -0.034700     -0.008434
Au     13.34232     18.71876     15.88440         0.001215     -0.042947     -0.005975
Au     17.46302     17.51141     17.44735         0.007301      0.007295      0.002286
Au     18.52694     19.17853     15.42928         0.002901     -0.002191      0.012113
Au     15.98957     19.71572     16.48960        -0.011924     -0.000413     -0.015576
Au     14.66158     17.99404     18.17118         0.002947      0.024844     -0.021899
Au     19.18537     16.41501     15.53208         0.007593      0.000834      0.006255
Au     16.39675     17.58850     14.51974        -0.000743     -0.012514      0.001724
Au     16.09117     15.83190     19.17436        -0.009010      0.004773     -0.012474
Au     15.18819     15.79977     16.28071        -0.016113      0.010461     -0.000969
