38
# total energy = -101.65737188 eVAu     13.98236     14.02713     11.68407         0.005202     -0.007593     -0.024817
Au     12.89485     11.91955     13.13028        -0.001111     -0.007461     -0.009008
Au     11.65386     14.49049     13.60752        -0.004015     -0.005343      0.008406
Au     15.64455     12.05461     12.88273        -0.006411      0.008799     -0.012574
Au     19.32009     14.99730     12.87499        -0.005995      0.016128     -0.011644
Au     16.89824     14.35066     14.51202        -0.042382      0.037028     -0.010927
Au     18.39564     12.38486     12.88367        -0.004349     -0.009641     -0.000896
Au     16.83344     14.26382     11.50761        -0.001214      0.008373      0.003154
Au     12.62809     16.49853     11.97507        -0.021753     -0.004105     -0.015772
Au     13.10251     18.98606     13.12125         0.023541     -0.007764      0.018962
Au     17.91654     19.53546     13.32526         0.002442      0.023966      0.005424
Au     15.13141     16.33327     10.60967        -0.004151     -0.008496      0.009772
Au     14.96572     16.24464     13.44321         0.000671      0.009958      0.042842
Au     17.69823     16.92762     11.57893         0.022755     -0.027488     -0.007859
Au     15.59074     18.69444     12.01589         0.024988      0.017331     -0.025626
Au     19.95233     17.65259     13.04698         0.003443     -0.000537     -0.006673
Au     14.03720     14.85959     18.44474         0.013410     -0.034828      0.009324
Au     14.13382     13.90543     14.83354         0.007186      0.023937      0.008121
Au     13.14261     12.40877     17.51401        -0.006587      0.001256      0.008505
Au     11.39913     12.30880     15.36298         0.001479      0.001149      0.009398
Au     14.50293     11.17724     15.36969         0.011243      0.017283      0.014871
Au     11.94563     14.83053     16.48197        -0.002834     -0.010609      0.020970
Au     17.23263     11.65857     15.31723         0.017828     -0.002663      0.000152
Au     18.04576     14.95174     17.23373        -0.008861     -0.014419      0.001959
Au     15.87978     13.16456     17.20135        -0.012303     -0.000759      0.007204
Au     19.42881     13.47090     15.30949        -0.009379     -0.005187      0.009949
Au     12.02595     17.01967     14.76083        -0.014223     -0.008265     -0.018450
Au     13.08935     17.21648     17.40455        -0.006660      0.012906     -0.002085
Au     13.02609     19.43537     15.84634         0.012324     -0.001642     -0.017733
Au     18.24189     17.76716     17.19815         0.002150     -0.010528     -0.008659
Au     17.59237     20.24877     16.09176         0.004267      0.007033      0.016011
Au     19.93281     16.18518     15.47464         0.002406      0.010842      0.012592
Au     15.47061     18.76466     17.09179         0.013366      0.001611      0.029487
Au     16.24846     16.52052     18.70950         0.006759      0.014897     -0.000162
Au     19.98050     19.08043     15.36600        -0.009553      0.012573      0.012027
Au     17.35061     17.14571     14.52841        -0.042226     -0.023854     -0.003843
Au     15.36879     19.96900     14.48725         0.001490     -0.025250     -0.007009
Au     15.35282     16.03393     16.17831         0.027055     -0.008635     -0.065394
