38
# total energy = -100.90231087 eVAu     12.25526     14.98359     11.00724         0.091186     -0.100729      0.041240
Au     12.34756     13.01164     13.18332         0.133978      0.123132      0.061507
Au     11.27066     15.66309     13.53330         0.078329      0.042219      0.002898
Au     14.20871     12.97027     10.97456        -0.119542      0.094703     -0.071519
Au     15.10829     12.36406     13.60244        -0.016730     -0.244877     -0.015210
Au     17.12224     15.90605     13.79412        -0.033370      0.169465      0.090213
Au     14.98252     15.74663     10.40496        -0.057255     -0.005449     -0.029387
Au     14.40350     15.11077     13.05342        -0.155058      0.180876      0.357142
Au     19.29706     14.23174     12.50721         0.069968      0.178878      0.045091
Au     17.76935     16.39493     11.07868         0.006292     -0.002144      0.168931
Au     16.68152     13.85024     11.79113         0.082411     -0.129110     -0.108327
Au     12.84918     17.49417     11.99858        -0.097621     -0.020532     -0.064735
Au     11.15529     18.44680     14.08124        -0.060600     -0.106643      0.070592
Au     13.64194     19.53254     13.78361        -0.016760      0.078280     -0.165025
Au     18.12481     18.83072     12.61804         0.171852     -0.028514      0.079823
Au     19.99828     16.85421     12.94203        -0.072793     -0.010926     -0.020998
Au     15.98672     20.55535     12.92256         0.092212     -0.066725      0.079335
Au     15.54017     17.86562     12.05681        -0.023556      0.327828     -0.140787
Au     13.97788     13.22786     17.79914         0.074215     -0.033390     -0.128725
Au     12.42825     14.29862     15.67074        -0.241033     -0.002918      0.102045
Au     13.23372     11.67484     15.53007         0.098563      0.005486      0.023604
Au     13.16522     15.97328     17.81329        -0.070022     -0.050031      0.153310
Au     17.65816     13.11482     14.42953         0.093930     -0.188000      0.054606
Au     19.45329     15.20605     15.29633        -0.104564      0.077781     -0.114435
Au     15.37354     14.71900     15.68219        -0.140806     -0.006925     -0.028053
Au     15.74624     15.29135     18.52911        -0.109872     -0.060321     -0.000754
Au     15.95819     11.88094     16.28906        -0.095868      0.091383     -0.039018
Au     17.76693     13.80579     17.17408        -0.050479     -0.052214     -0.040831
Au     13.67565     16.93216     15.03789        -0.021769     -0.466475     -0.177576
Au     11.04710     16.68587     16.24934         0.082364      0.115946     -0.180327
Au     12.69694     19.08603     16.49867        -0.075048      0.017775      0.008327
Au     17.45095     19.28222     17.28785         0.037219      0.108832     -0.195254
Au     17.90908     20.67168     14.88525        -0.024903     -0.110700     -0.028409
Au     15.09631     20.51892     16.03327        -0.044001     -0.008503      0.035790
Au     15.04979     17.92768     17.50312         0.046221      0.056105      0.335594
Au     17.44572     16.53138     16.78123         0.197366      0.117075      0.083169
Au     16.13594     18.27287     14.82991         0.295039     -0.117274     -0.129832
Au     19.13466     18.10934     15.24604        -0.019495      0.026636     -0.114014
