38
# total energy = -101.86183339 eVAu     13.76484     11.90199     13.65095         0.000648     -0.000276      0.008265
Au     13.95052     15.42064     10.55844        -0.034181     -0.006190      0.032149
Au     11.23637     15.88251     14.48903         0.014500      0.017445      0.017623
Au     12.61163     14.26993     12.61890         0.030604      0.026080     -0.044034
Au     16.57904     12.18729     14.15257        -0.008305     -0.009830      0.031246
Au     19.25822     16.05938     14.56380        -0.000182     -0.001294      0.010988
Au     16.70649     15.40793     10.57509         0.009728     -0.002277      0.028640
Au     15.27942     15.84874     13.31994        -0.025301     -0.016798     -0.006755
Au     17.90115     14.28026     12.81166        -0.014572      0.011776     -0.053672
Au     15.36932     13.31438     11.89222        -0.014949     -0.012088     -0.020326
Au     12.80243     17.11467     12.41789         0.022511     -0.005247     -0.035692
Au     11.93806     18.56550     14.54885        -0.006619     -0.000944      0.015512
Au     17.04379     19.70818     12.59410         0.000543     -0.006805     -0.001680
Au     16.89225     17.81018     14.76108        -0.000751      0.004263     -0.010294
Au     14.44204     19.17611     13.53864        -0.020463      0.000448     -0.003129
Au     18.08453     17.09507     12.19249        -0.021621     -0.009296     -0.024749
Au     15.39076     17.82392     11.28261        -0.001038     -0.018262      0.001932
Au     19.42480     18.79327     13.93804        -0.031633      0.012106      0.057043
Au     14.08437     14.16016     15.30631        -0.003600     -0.008672      0.005667
Au     12.72487     12.68748     17.35114         0.026591     -0.008637     -0.016273
Au     11.50910     13.06501     14.83984         0.005059     -0.014408      0.028793
Au     13.32359     15.24643     18.28419        -0.006450     -0.017626     -0.027981
Au     10.81649     14.68329     17.00253        -0.016706     -0.002658      0.004718
Au     18.10686     14.26599     17.86115         0.008031      0.006643     -0.016081
Au     15.40333     13.39325     17.98105         0.005017     -0.011478     -0.025551
Au     16.66274     15.11902     15.63411         0.058926     -0.000106      0.004826
Au     16.04488     16.09379     18.46727        -0.009589      0.017172      0.004077
Au     14.82040     11.30681     16.16991        -0.010835      0.022479      0.000007
Au     17.43906     11.75063     16.85502         0.009497     -0.006802     -0.013306
Au     18.91512     13.43010     15.24453        -0.004300     -0.022873      0.038945
Au     13.86239     19.54576     16.28292         0.001426      0.018920      0.003611
Au     11.76543     17.25526     16.95344        -0.005414      0.015540      0.005485
Au     13.93882     17.90985     18.56539        -0.004203      0.006820     -0.025878
Au     18.78303     19.63576     16.47054         0.036880      0.036821      0.035052
Au     16.32989     20.51585     15.24517         0.029005     -0.003247     -0.015987
Au     16.33694     18.78686     17.51538        -0.004986      0.015543      0.016746
Au     18.43986     16.93795     17.16704         0.007781     -0.012395     -0.011978
Au     14.41272     16.86603     15.81783        -0.021047     -0.013845      0.002039
