38
# total energy = -101.53480800 eVAu     14.00457     14.07190     11.64904         0.021941     -0.023886     -0.044733
Au     12.88859     12.00874     13.07584         0.049916     -0.055337      0.009707
Au     11.70008     14.59363     13.51706        -0.027938      0.013222      0.055715
Au     15.64921     12.06847     12.88872        -0.040904      0.044157     -0.080766
Au     19.26284     14.99309     12.92113         0.034687     -0.024766     -0.078798
Au     16.88614     14.31285     14.57757         0.133597     -0.142048      0.015245
Au     18.41137     12.33960     12.93036        -0.001411      0.069655     -0.043858
Au     16.87539     14.23179     11.50740        -0.044033      0.028002      0.009949
Au     12.81457     16.62534     11.96427        -0.028632     -0.065422      0.036035
Au     12.97529     19.08447     13.18780         0.006987      0.045806      0.045152
Au     17.83061     19.43363     13.15590        -0.041069      0.015396      0.004169
Au     15.19357     16.24995     10.41916         0.038714     -0.026221      0.191150
Au     15.14796     16.21224     13.40081        -0.144060      0.068696     -0.191302
Au     17.64912     16.93363     11.58196         0.017980     -0.028790      0.031410
Au     15.36705     18.60367     11.88086         0.093408      0.042654      0.021779
Au     19.96824     17.61314     13.03084         0.005605      0.037751     -0.045644
Au     14.10281     14.82476     18.44393         0.015198     -0.015190      0.044347
Au     14.12634     14.01703     14.80621        -0.071094     -0.144529      0.038882
Au     13.14827     12.41568     17.52831         0.002257      0.008223      0.009420
Au     11.45407     12.38651     15.33460        -0.003512     -0.001106     -0.008816
Au     14.46169     11.26822     15.33881        -0.012413     -0.027396      0.037613
Au     11.98356     14.87163     16.49428        -0.068639     -0.053004     -0.017524
Au     17.22275     11.57584     15.30670         0.024891      0.065379      0.031569
Au     18.01236     14.97991     17.24614         0.066670      0.010965     -0.006878
Au     15.91643     13.10778     17.19495        -0.069606      0.023775     -0.001103
Au     19.43853     13.48249     15.34348        -0.111613     -0.063194      0.022863
Au     11.94532     17.06026     14.78358         0.123531     -0.006996      0.005542
Au     13.10160     17.19946     17.48765         0.028038     -0.026264     -0.032243
Au     13.04456     19.40530     15.94254         0.034917      0.051734     -0.117715
Au     18.24845     17.81390     17.24101         0.012936     -0.019249     -0.036365
Au     17.50224     20.28775     16.14051         0.061417      0.002412     -0.016079
Au     19.94619     16.19621     15.50797        -0.031887      0.062536      0.014385
Au     15.47660     18.78662     17.26245        -0.071197     -0.060538     -0.056782
Au     16.27228     16.52276     18.77040        -0.011255      0.001748     -0.045369
Au     19.82351     19.15206     15.24942         0.008613     -0.055315      0.060210
Au     17.41154     17.13966     14.59535         0.074056      0.042857      0.064908
Au     15.41043     19.53890     14.50238        -0.096923      0.138903      0.007213
Au     15.36299     16.07520     16.19605         0.020828      0.065379      0.066710
