38
# total energy = -101.34135622 eVAu     14.00053     14.07369     11.58555         0.027980      0.030294      0.035430
Au     12.92344     12.02035     13.04935        -0.105625     -0.029730      0.067782
Au     11.75918     14.64432     13.45495        -0.115485     -0.078066      0.024360
Au     15.63384     12.06675     12.81361         0.047961     -0.001665      0.074575
Au     19.25229     15.01232     12.89087        -0.012543     -0.014518      0.026237
Au     16.84599     14.25431     14.62731         0.081440     -0.052561     -0.085150
Au     18.37634     12.37569     12.94357         0.051727     -0.047134     -0.018595
Au     16.87828     14.24729     11.48985        -0.022364      0.016565      0.000080
Au     12.90465     16.69172     11.96038        -0.105905      0.001943     -0.087498
Au     12.90211     19.22281     13.15496        -0.055858     -0.007713      0.073344
Au     17.65488     19.37753     13.13626         0.132394      0.011078      0.023427
Au     15.22165     16.24847     10.40547        -0.000605     -0.031077     -0.088753
Au     15.25410     16.19712     13.34331        -0.039217      0.036093      0.003100
Au     17.65786     16.95369     11.52250        -0.046685      0.030868      0.051534
Au     15.25291     18.63589     11.78593         0.119529     -0.014489      0.007323
Au     19.90093     17.65992     13.00613         0.022765      0.021456      0.019050
Au     14.09305     14.79796     18.51693         0.009106      0.072509     -0.020207
Au     14.09371     14.03272     14.80815         0.004255     -0.068204      0.019649
Au     13.12122     12.40269     17.56052         0.052074     -0.000070      0.001208
Au     11.48659     12.46850     15.31059        -0.002211     -0.049117     -0.069278
Au     14.44849     11.28565     15.35126        -0.093467     -0.008862     -0.016522
Au     12.01156     14.88781     16.57861        -0.009165      0.071312     -0.044408
Au     17.17336     11.53439     15.30121         0.087982      0.035612      0.014380
Au     18.04842     15.06124     17.27821        -0.008855     -0.056391     -0.068155
Au     15.88205     13.16923     17.16900         0.048240     -0.032410     -0.011651
Au     19.37826     13.49159     15.36095         0.068919     -0.077708      0.031306
Au     12.43070     16.99129     14.79703        -0.196520     -0.029221     -0.010363
Au     13.19025     17.23734     17.56259        -0.076618     -0.156009      0.089171
Au     13.01093     19.45980     15.97981        -0.088532      0.108795     -0.051164
Au     18.21242     17.90606     17.33736         0.035316     -0.071632     -0.087858
Au     17.40956     20.25361     16.00708         0.023720     -0.002617     -0.009577
Au     19.98577     16.17830     15.51089         0.057560      0.052659      0.028495
Au     15.45350     18.86486     17.36095         0.068545      0.007010      0.008797
Au     16.22972     16.53272     18.73794        -0.029525     -0.009511      0.167648
Au     19.79189     19.07525     15.30042        -0.027007      0.022495     -0.022578
Au     17.51018     17.06983     14.66786        -0.031596      0.110745     -0.024625
Au     15.30071     19.00793     14.56198         0.192853      0.172646     -0.059134
Au     15.35579     16.09342     16.17606        -0.064583      0.036625      0.008619
