38
# total energy = -101.79620010 eVAu     12.81253     14.37098     11.86286        -0.001991      0.019776      0.006345
Au     12.69799     11.81193     12.77594        -0.028444      0.023187      0.023710
Au     11.39900     13.80488     14.42964         0.007033     -0.042715     -0.013059
Au     17.36277     11.88455     13.33650        -0.029135      0.023122      0.014715
Au     14.91915     10.89554     14.15929         0.102830     -0.036891     -0.043851
Au     19.99788     15.52663     12.81201         0.010276      0.021587     -0.000050
Au     16.50728     14.92730     14.10267        -0.019674     -0.023836      0.007690
Au     15.43333     15.51973     11.08368        -0.060876      0.007289      0.014718
Au     17.79398     14.12965     11.78434        -0.003248      0.002965     -0.079859
Au     15.18734     12.89088     11.97936        -0.050594      0.029142      0.014782
Au     13.00886     16.96896     11.03908        -0.004291     -0.010528      0.029304
Au     11.26258     16.32492     13.32680         0.010293      0.009853     -0.020228
Au     14.02110     16.22203     13.75195         0.075580     -0.042777     -0.014103
Au     12.71289     18.70941     13.19929        -0.020173     -0.003032      0.000504
Au     17.53549     19.58703     12.84054         0.024952     -0.011560      0.022185
Au     14.96349     20.09764     13.93703        -0.056087      0.001382     -0.010946
Au     17.75530     16.92180     11.83888         0.016649      0.024403     -0.009571
Au     15.29920     18.28959     11.78653        -0.011675     -0.025784     -0.011039
Au     19.92146     18.24541     13.22581        -0.008862     -0.007793      0.002417
Au     14.19802     13.54488     14.81640         0.016612      0.022497     -0.002384
Au     12.42278     13.43867     17.02813         0.010114     -0.043509     -0.006636
Au     11.94698     11.17748     15.37033        -0.015426      0.058674      0.015280
Au     13.29925     15.59587     18.49882         0.023110      0.007228      0.011560
Au     17.79590     14.67409     17.08450        -0.052447      0.004798      0.029341
Au     15.23636     13.50339     18.01833        -0.002196      0.020627      0.000589
Au     14.29911     11.23854     16.84038        -0.033946      0.026731      0.005747
Au     16.76638     12.32559     15.98927        -0.043521      0.028211      0.030310
Au     18.93322     13.72155     14.67606         0.048506     -0.014832      0.060050
Au     12.01655     16.09383     16.03597         0.042380     -0.016905     -0.020508
Au     13.32321     18.57692     15.87108         0.049386      0.061410     -0.010134
Au     17.48753     17.50585     17.34519        -0.004859     -0.028008      0.009896
Au     18.55038     19.22331     15.41768         0.001361     -0.004154     -0.035804
Au     15.97049     19.73749     16.49380        -0.036061     -0.007455      0.046999
Au     14.67762     18.00619     18.18793        -0.016368     -0.002343      0.012122
Au     19.13179     16.42879     15.33446         0.020317      0.020687     -0.000446
Au     16.35438     17.64847     14.54617         0.001790     -0.050282     -0.006426
Au     16.17892     15.83419     19.08914        -0.023332     -0.003836     -0.020571
Au     15.03436     15.85915     16.32618         0.062017     -0.037331     -0.052649
