38
# total energy = -101.66449689 eVAu     13.97987     14.02487     11.68259         0.010234      0.001173     -0.024977
Au     12.89432     11.91939     13.13356        -0.000218     -0.009274     -0.000112
Au     11.65291     14.48644     13.60861        -0.000021      0.013100     -0.008743
Au     15.64274     12.05188     12.88437        -0.001521      0.016269     -0.013242
Au     19.31234     15.00181     12.87710        -0.009672     -0.000577     -0.024056
Au     16.88906     14.35881     14.50800         0.007101     -0.011636     -0.031483
Au     18.39194     12.38482     12.88177        -0.004549      0.002876     -0.003247
Au     16.82738     14.26129     11.50431         0.007707      0.015630      0.007520
Au     12.61497     16.49127     11.95789        -0.013243     -0.021185      0.025922
Au     13.11382     18.96929     13.11525         0.024892     -0.006895      0.026607
Au     17.92371     19.54155     13.33022        -0.005430      0.029689      0.014775
Au     15.12933     16.33661     10.61711        -0.008605     -0.011262      0.006502
Au     14.94772     16.25531     13.44998        -0.032623      0.033476     -0.026241
Au     17.70190     16.92745     11.56370         0.023783     -0.037127      0.004385
Au     15.60273     18.70086     12.01295         0.039377      0.010876     -0.023095
Au     19.94114     17.65544     13.05921         0.021960      0.005631     -0.017053
Au     14.03994     14.85494     18.44911         0.020316     -0.011397     -0.017909
Au     14.13651     13.90839     14.83165        -0.028570     -0.008546      0.006708
Au     13.14253     12.40381     17.51861        -0.007508      0.003394      0.010045
Au     11.40104     12.31443     15.36779        -0.001950     -0.020046      0.010543
Au     14.50817     11.17881     15.37346         0.004364      0.025144      0.008779
Au     11.95353     14.83097     16.48692        -0.017172     -0.023250      0.023410
Au     17.23818     11.66795     15.32247         0.019893     -0.017043     -0.022406
Au     18.04069     14.95041     17.22908        -0.024156     -0.016416      0.027074
Au     15.87947     13.16023     17.19994        -0.030441      0.020804      0.034866
Au     19.42658     13.47739     15.30348        -0.008433     -0.017749      0.011523
Au     12.02282     17.01347     14.76029        -0.006959     -0.007777     -0.047302
Au     13.08787     17.21631     17.40419         0.024516     -0.003623      0.022392
Au     13.02801     19.42547     15.83735         0.013286      0.021801     -0.015538
Au     18.24015     17.76122     17.19411        -0.003639      0.004412     -0.007477
Au     17.60581     20.24568     16.09706        -0.019508      0.009902      0.020758
Au     19.92996     16.18702     15.48114         0.017339      0.021055      0.005315
Au     15.47201     18.76944     17.09327         0.016825     -0.015372      0.034519
Au     16.24316     16.52264     18.70898         0.005954      0.009216     -0.031313
Au     19.99792     19.08535     15.38106        -0.012584     -0.004476     -0.002787
Au     17.34776     17.14238     14.51483        -0.032889      0.006499     -0.001846
Au     15.37839     19.96231     14.49314        -0.012063     -0.023135     -0.023857
Au     15.35073     16.03836     16.17084         0.024208      0.015838      0.041041
