38
# total energy = -101.86524406 eVAu     12.13191     14.87013     11.04994         0.001520      0.022901     -0.001363
Au     12.30636     12.89702     13.26828         0.001397      0.005746      0.019395
Au     11.27634     15.54245     13.58284         0.028030     -0.018177     -0.017772
Au     14.17029     13.02966     11.02696         0.035305      0.013341      0.010733
Au     15.17107     12.07707     13.47154         0.007213      0.021108      0.011895
Au     16.81716     15.52896     14.07387         0.037807     -0.003351     -0.010336
Au     15.01023     15.91757     10.61890        -0.008553     -0.023041     -0.002442
Au     14.23778     14.95109     13.12136         0.000995     -0.009449     -0.065407
Au     19.20923     14.47127     12.61274        -0.008406     -0.013153      0.013637
Au     17.65445     16.50328     11.47139         0.001876      0.002621     -0.002761
Au     16.69349     13.79906     11.73506        -0.003386     -0.011511     -0.024554
Au     12.96368     17.40426     11.92456        -0.008891     -0.001428      0.008210
Au     11.32472     18.33385     14.05351         0.001296      0.030011      0.014874
Au     13.71186     19.57683     13.57694        -0.016503     -0.003896     -0.008454
Au     18.27022     18.95427     12.60866        -0.007716     -0.011500     -0.008312
Au     20.23989     17.03704     12.85584        -0.015935     -0.011120      0.009024
Au     16.26501     20.61239     13.56474         0.022301      0.020874      0.006647
Au     15.58226     18.37032     11.84211         0.009754     -0.010611     -0.022355
Au     13.85495     13.16857     17.89507        -0.001693      0.018682     -0.055300
Au     11.93891     14.04151     15.89381        -0.009862      0.011914      0.004328
Au     13.26085     11.66067     15.52246         0.004582      0.024889      0.006912
Au     13.13025     16.04963     17.72416         0.020481     -0.002443      0.004455
Au     17.74564     12.86086     14.32019         0.023629     -0.026109     -0.009386
Au     19.38513     15.42473     15.21378         0.009734      0.015324     -0.005827
Au     14.86435     14.56658     15.75773         0.004606     -0.022902      0.058045
Au     15.72377     15.32863     18.39180         0.004505     -0.011347     -0.004942
Au     15.91976     11.97688     16.22643        -0.027038      0.011490      0.013353
Au     17.66692     14.02725     16.90023        -0.015845     -0.008719     -0.032836
Au     13.69309     16.92434     14.92505        -0.003882      0.015286      0.019956
Au     10.90964     16.54677     16.15523        -0.032939     -0.004200      0.036773
Au     12.58403     18.75599     16.67659         0.019069      0.011357      0.009487
Au     17.41828     19.58131     16.73802        -0.012738     -0.000577     -0.006647
Au     18.82157     20.89448     14.60128        -0.012390     -0.013028     -0.004759
Au     14.82323     20.29882     16.02332        -0.030479     -0.025374      0.004684
Au     15.17384     17.99485     17.62233        -0.026650     -0.014217     -0.004880
Au     17.64084     16.79092     16.99398         0.020837      0.027044      0.017983
Au     16.26392     18.06496     14.68790        -0.013498     -0.028129      0.003012
Au     19.29172     18.18880     15.17075         0.001466      0.021694      0.014933
