38
# total energy = -101.81962028 eVAu     12.76890     14.36640     11.85415         0.021187     -0.018534      0.006764
Au     12.70156     11.81177     12.84165        -0.004865      0.011767      0.010084
Au     11.40554     13.81068     14.43905        -0.013042      0.002128     -0.022225
Au     17.37006     12.04761     13.35652         0.033808     -0.017428     -0.015808
Au     14.98871     10.87402     14.12857         0.045174      0.028207     -0.013640
Au     19.93936     15.50486     12.83176        -0.029420     -0.009596      0.011219
Au     16.57006     14.85933     14.06887         0.013372      0.005878     -0.004471
Au     15.39209     15.53630     11.06355        -0.009041      0.018066     -0.039802
Au     17.77027     14.17628     11.64593        -0.026089     -0.002765     -0.006823
Au     15.14900     12.91119     11.96742         0.011889     -0.008172     -0.011653
Au     12.97886     16.98341     11.04779        -0.011565     -0.028590      0.000810
Au     11.27641     16.31493     13.32904        -0.011999      0.000475     -0.008957
Au     14.08089     16.17820     13.71030         0.013926     -0.011625      0.024137
Au     12.68846     18.68455     13.23064         0.024425      0.013084     -0.026861
Au     17.52241     19.57263     12.84720         0.007487      0.023322     -0.014575
Au     14.95270     20.05859     13.93650         0.013113      0.022167      0.010778
Au     17.76626     16.94990     11.76705        -0.032794      0.003529     -0.003084
Au     15.28649     18.28194     11.78305        -0.013569      0.003210     -0.021457
Au     19.90684     18.23247     13.22950        -0.003899     -0.035053     -0.002468
Au     14.22254     13.51979     14.80460        -0.007110      0.029566      0.006220
Au     12.42224     13.44770     17.01884         0.004751     -0.004016      0.026700
Au     11.84706     11.19518     15.41224        -0.014982     -0.017130      0.003351
Au     13.30752     15.58843     18.48657        -0.002371     -0.003664      0.012132
Au     17.78206     14.68210     17.12917         0.020654      0.006415      0.041425
Au     15.21166     13.49319     18.05207         0.007962     -0.014524     -0.022770
Au     14.25825     11.25535     16.79117        -0.009201      0.013294     -0.003383
Au     16.74952     12.33917     16.02771         0.014556     -0.010832      0.000025
Au     19.01359     13.73172     14.80028        -0.014691     -0.006938      0.018913
Au     12.11901     16.11944     15.99893        -0.024080     -0.015349      0.009725
Au     13.31582     18.65258     15.88453        -0.010904      0.030928      0.009978
Au     17.48023     17.49702     17.35435         0.005800     -0.002475      0.022380
Au     18.53420     19.21038     15.41791         0.017950      0.019567      0.010219
Au     15.95854     19.69841     16.49273         0.005410      0.025387     -0.010576
Au     14.63540     17.98845     18.17729         0.039160      0.007252      0.003515
Au     19.19149     16.44006     15.38354        -0.022414      0.002520      0.023843
Au     16.39632     17.58726     14.52085        -0.021591     -0.026882      0.004899
Au     16.15266     15.84814     19.10584        -0.010068     -0.028934      0.000217
Au     15.10185     15.81368     16.30484        -0.006929     -0.004255     -0.028780
