38
# total energy = -101.86485015 eVAu     12.15109     14.89031     11.02932        -0.005756     -0.005159      0.027271
Au     12.31167     12.91428     13.27375         0.010641      0.026622     -0.020868
Au     11.30464     15.55624     13.58265        -0.006350      0.010253      0.006429
Au     14.17905     13.03348     11.03145        -0.005479     -0.011063     -0.006397
Au     15.18154     12.08195     13.47313        -0.019553      0.017075     -0.005208
Au     16.84165     15.49444     14.07111         0.008232     -0.013435      0.001067
Au     15.00818     15.90478     10.60678         0.010034      0.022360     -0.027837
Au     14.25502     14.96388     13.10561         0.010577      0.027097      0.057098
Au     19.21729     14.44136     12.61614        -0.000954     -0.008603      0.015982
Au     17.65662     16.48245     11.46836         0.000523      0.006431     -0.005810
Au     16.70978     13.78267     11.71327        -0.009448     -0.008952      0.012519
Au     12.95843     17.41114     11.93705        -0.003596     -0.019469     -0.018978
Au     11.32911     18.34602     14.10012         0.000371      0.033889     -0.018154
Au     13.71747     19.56899     13.55727        -0.026680      0.019477     -0.015779
Au     18.26312     18.93748     12.61212        -0.013519     -0.004016      0.012945
Au     20.21987     17.01124     12.87302         0.007623      0.033236     -0.004148
Au     16.26601     20.59345     13.58920         0.017282      0.001089      0.004152
Au     15.58795     18.35789     11.82648         0.012758     -0.012704      0.009301
Au     13.84006     13.19437     17.87646        -0.002320     -0.002113      0.033409
Au     11.90757     14.05256     15.89730         0.026762     -0.004232     -0.015043
Au     13.26540     11.68865     15.52302        -0.017276     -0.026040      0.004294
Au     13.12649     16.05385     17.72383        -0.002776     -0.022971      0.015595
Au     17.76643     12.81404     14.30698        -0.021333     -0.000472     -0.002863
Au     19.40382     15.45724     15.20962         0.017085      0.018854      0.014370
Au     14.86004     14.57324     15.74872         0.003590      0.017203     -0.011051
Au     15.73291     15.33564     18.37769        -0.005787     -0.022126      0.006773
Au     15.91836     11.98393     16.22875         0.004980      0.004870      0.004173
Au     17.65510     14.05583     16.84506         0.017968     -0.004539     -0.007677
Au     13.67343     16.92702     14.93560         0.011967     -0.031388     -0.013573
Au     10.86873     16.54531     16.17842         0.002980     -0.009410     -0.001176
Au     12.56933     18.73460     16.72559        -0.008599      0.011126      0.028645
Au     17.39506     19.60046     16.71332        -0.011549     -0.011306     -0.017010
Au     18.82273     20.90206     14.59087         0.009213      0.004543     -0.009994
Au     14.78441     20.26413     16.02405        -0.023298      0.010335     -0.005323
Au     15.17557     17.99705     17.64888         0.002039     -0.001204     -0.033585
Au     17.65749     16.82277     17.00700         0.007503     -0.015089     -0.001323
Au     16.25373     18.02753     14.68883         0.006127     -0.027325     -0.015985
Au     19.31147     18.22081     15.18256        -0.003982     -0.002843      0.003756
