38
# total energy = -102.04987974 eVAu     13.73518     11.92789     13.66548         0.018537     -0.084887     -0.045070
Au     13.89291     15.38386     10.51688         0.065203      0.048599      0.083707
Au     11.17015     15.91562     14.50843         0.033996      0.021345      0.001413
Au     12.58902     14.32404     12.65939        -0.064515     -0.041141     -0.087758
Au     16.58851     12.13905     14.13728         0.012083     -0.005257      0.013738
Au     19.27310     15.95977     14.53817         0.031515     -0.076249     -0.020325
Au     16.66301     15.39957     10.66075         0.065895      0.030509     -0.065417
Au     15.10961     15.66400     13.27499        -0.006789     -0.023849      0.052037
Au     17.91810     14.20717     12.77201         0.026757      0.010801      0.029898
Au     15.37278     13.21715     11.83581         0.029697     -0.013984     -0.007521
Au     12.78349     17.15673     12.36914        -0.030192     -0.009487     -0.013688
Au     12.04528     18.55179     14.59392         0.014121     -0.017564      0.049490
Au     17.04020     19.70685     12.51669         0.012110      0.001140      0.058014
Au     16.43907     17.72767     14.59105        -0.072211      0.050128     -0.025038
Au     14.39048     19.34537     13.39043        -0.080038      0.089163     -0.089502
Au     18.08036     17.10710     12.28884        -0.020735     -0.001940      0.014732
Au     15.37132     17.77831     11.30854         0.017467      0.015010     -0.014220
Au     18.99770     18.70976     14.53919         0.103329     -0.031463     -0.074144
Au     14.14162     14.06151     15.37698         0.071318      0.095917     -0.023172
Au     12.77208     12.66013     17.36731         0.023877      0.015033      0.016993
Au     11.48783     13.09089     14.82728        -0.013414     -0.037736      0.031202
Au     13.37493     15.26700     18.19469        -0.005099     -0.035596      0.104614
Au     10.79805     14.60519     17.01954         0.028949      0.046859      0.008650
Au     18.18693     14.34025     17.75329        -0.011500      0.043252      0.001274
Au     15.50549     13.44610     17.93539         0.004868     -0.007846      0.044982
Au     16.69840     15.13975     15.57567        -0.086790      0.118141     -0.087872
Au     16.11320     16.18112     18.33525        -0.069259     -0.004171      0.003353
Au     14.89150     11.31862     16.16883        -0.012050      0.004769      0.041355
Au     17.53519     11.71140     16.89874        -0.046209     -0.009040      0.022474
Au     18.93255     13.34101     15.20223        -0.006202     -0.006176     -0.033790
Au     14.12985     19.60882     16.13201         0.035422     -0.051180     -0.023009
Au     11.65808     17.23433     16.97182        -0.035828      0.014431      0.065861
Au     13.95741     17.96643     18.40919         0.024008     -0.037705     -0.018409
Au     18.93823     19.87988     17.00807        -0.002816     -0.053225     -0.059197
Au     16.72099     20.46641     15.20971        -0.035168      0.014836      0.047253
Au     16.42052     18.91902     17.57906         0.051910      0.001244      0.078776
Au     18.47353     17.06300     16.98788        -0.052622      0.005227      0.028679
Au     14.19892     16.79265     15.80112        -0.019625     -0.077910     -0.110366
