38
# total energy = -101.55658711 eVAu     14.00119     14.06048     11.65813        -0.035530     -0.019601     -0.063469
Au     12.89037     11.99524     13.08375        -0.001092     -0.077426     -0.038699
Au     11.69082     14.59249     13.54232        -0.047326     -0.021969      0.037145
Au     15.63990     12.08240     12.89142         0.075445     -0.024463     -0.048911
Au     19.27502     14.98764     12.91719         0.069189      0.023603     -0.052042
Au     16.90292     14.31568     14.57339        -0.065126      0.001533     -0.043401
Au     18.41830     12.34746     12.92124        -0.061561      0.010355     -0.046971
Au     16.86609     14.23451     11.51696         0.012589     -0.019050     -0.003175
Au     12.78549     16.60438     11.97081        -0.079478     -0.030604      0.003535
Au     12.99635     19.05903     13.19328         0.002410      0.054103     -0.080230
Au     17.84039     19.44713     13.16354        -0.003391      0.035089      0.027659
Au     15.19293     16.24972     10.46694        -0.014534      0.015787      0.065376
Au     15.11342     16.21629     13.39172         0.018211     -0.022440      0.079312
Au     17.65113     16.92210     11.60837         0.086129      0.027099      0.002880
Au     15.39739     18.61466     11.90531         0.078826      0.087729      0.021215
Au     19.99063     17.61112     13.02837        -0.042213      0.033415     -0.043077
Au     14.10111     14.83302     18.43709         0.021376     -0.016634      0.070023
Au     14.12343     13.99464     14.80798         0.046877     -0.013861      0.050469
Au     13.15593     12.42367     17.52010        -0.050150     -0.021421      0.023681
Au     11.45599     12.37137     15.33161        -0.055112     -0.009390      0.030802
Au     14.47327     11.25517     15.34460        -0.006557     -0.066349      0.026307
Au     11.96712     14.86176     16.48059        -0.064626     -0.043189     -0.003425
Au     17.23169     11.59291     15.31087         0.001210      0.015930      0.007820
Au     18.01170     14.96824     17.23220         0.040381      0.029048      0.062589
Au     15.89859     13.10586     17.19425         0.015841      0.043710      0.002858
Au     19.42659     13.47123     15.34262         0.021504     -0.022591      0.039724
Au     11.90361     17.07477     14.78413         0.120844     -0.058444      0.018754
Au     13.08110     17.17927     17.46945         0.035639      0.091718     -0.084963
Au     13.06584     19.39360     15.91249        -0.059842      0.052788      0.054745
Au     18.25755     17.81035     17.21965        -0.042297     -0.071045      0.062992
Au     17.52256     20.28360     16.16680        -0.004262      0.017073     -0.086647
Au     19.93279     16.20453     15.50955         0.017281     -0.032796     -0.035529
Au     15.46640     18.76423     17.22726        -0.007497     -0.024845     -0.034252
Au     16.28501     16.52278     18.76683         0.000135      0.000761     -0.070202
Au     19.83612     19.14232     15.25005         0.011457     -0.008511      0.036861
Au     17.40425     17.15594     14.57856        -0.049873     -0.045524      0.041068
Au     15.40693     19.66406     14.49148         0.036393      0.094760      0.010659
Au     15.37717     16.07041     16.19453        -0.021270      0.015651     -0.041481
