38
# total energy = -100.42633096 eVAu     12.27102     14.98935     11.03171         0.066392     -0.111917     -0.069873
Au     12.36175     13.03585     13.18775         0.025066     -0.111285     -0.114291
Au     11.32121     15.65544     13.55623        -0.345508      0.170051     -0.221842
Au     14.22303     12.98792     11.01151        -0.213214      0.057635     -0.196656
Au     15.11655     12.43115     13.62084        -0.203577     -0.576520     -0.104448
Au     17.09261     15.95963     13.82496         0.560312     -0.643869     -0.456566
Au     14.99044     15.73987     10.42694        -0.127035     -0.070321     -0.018777
Au     14.39118     15.15704     13.15278         0.012683     -0.609595     -1.331817
Au     19.25624     14.23721     12.52096         0.291116      0.169975     -0.023078
Au     17.76339     16.39272     11.10197         0.037810     -0.044260     -0.012838
Au     16.66633     13.87467     11.81851         0.107001     -0.096882     -0.253278
Au     12.89505     17.47437     12.05307        -0.491238      0.055209     -0.407467
Au     11.19551     18.43149     14.08761        -0.214957     -0.017581      0.076551
Au     13.67767     19.50894     13.80140        -0.322296      0.140912     -0.038310
Au     18.09924     18.79269     12.64807         0.150453      0.314204     -0.154628
Au     19.95083     16.85831     12.96401         0.255797     -0.200343     -0.166099
Au     15.96302     20.52775     12.94830         0.324259      0.138191     -0.087830
Au     15.53090     17.80938     12.11766         0.171545      0.525259     -0.544189
Au     13.98680     13.25102     17.77668         0.014588     -0.141959      0.011352
Au     12.48159     14.32862     15.62464        -0.399489     -0.301559      0.463644
Au     13.25116     11.71272     15.52720        -0.013043     -0.204779      0.036916
Au     13.19993     15.97414     17.75692        -0.276485     -0.058035      0.430841
Au     17.61443     13.15930     14.43231         0.419757     -0.283117      0.042877
Au     19.43005     15.21132     15.28386         0.071278     -0.018979     -0.041418
Au     15.35909     14.74629     15.62831         0.209064     -0.471089      0.803659
Au     15.74300     15.28852     18.49204        -0.010071     -0.044373      0.183208
Au     15.95051     11.91066     16.27415        -0.063004     -0.092485      0.110365
Au     17.74069     13.82537     17.14825         0.099013     -0.121394      0.121924
Au     13.71718     16.86406     14.97586        -0.669572      0.896943      0.740296
Au     11.07436     16.67308     16.24491        -0.100327      0.229329     -0.120925
Au     12.70458     19.07735     16.48529        -0.013356     -0.090898     -0.060530
Au     17.43059     19.26175     17.26452         0.098473      0.204915     -0.024589
Au     17.88817     20.64554     14.89140         0.013687      0.012580     -0.044174
Au     15.11266     20.50879     16.02716        -0.027097     -0.119003     -0.029912
Au     15.04525     17.90627     17.43692         0.053108      0.256918      0.511482
Au     17.41053     16.53233     16.72889         0.318714     -0.062581      0.466537
Au     16.15167     18.19413     14.79189        -0.105989      1.097399      0.469860
Au     19.08842     18.08807     15.23390         0.296140      0.223305      0.054024
