38
# total energy = -101.83692201 eVAu     12.11628     14.85369     11.05454         0.022250      0.027298      0.028790
Au     12.30645     12.88253     13.27914         0.018963      0.021202      0.019152
Au     11.30304     15.52808     13.60762        -0.009095      0.027647     -0.011157
Au     14.18377     13.04367     11.02408         0.011364     -0.013749      0.012765
Au     15.15744     12.13875     13.51174         0.016076     -0.060992     -0.042352
Au     16.83880     15.58124     14.03639         0.012341     -0.069566      0.010271
Au     14.98817     15.91325     10.61578         0.034251     -0.003523     -0.007086
Au     14.25029     14.93899     13.12715        -0.000716      0.014903     -0.021481
Au     19.19835     14.50576     12.63144        -0.005279     -0.024767     -0.024384
Au     17.64363     16.53158     11.42846         0.002682     -0.023488      0.027041
Au     16.70789     13.80750     11.72149        -0.023213      0.000037      0.023858
Au     12.95699     17.39052     11.93057         0.006255      0.001783     -0.023239
Au     11.32179     18.32536     14.02587        -0.024353      0.023430      0.008570
Au     13.71065     19.58816     13.56512        -0.007996     -0.037081      0.032764
Au     18.24985     18.98062     12.58982        -0.013873     -0.057693      0.019765
Au     20.21166     17.06406     12.85593        -0.014653      0.006778      0.016445
Au     16.25201     20.65187     13.51773         0.016878     -0.040290     -0.000113
Au     15.55748     18.39092     11.79812         0.038688     -0.008443      0.038133
Au     13.84295     13.14785     17.87270         0.034980      0.025971     -0.019451
Au     11.96077     14.05977     15.90506        -0.019503     -0.009123     -0.007391
Au     13.22810     11.63218     15.53940         0.014737      0.050581     -0.025864
Au     13.15225     16.00961     17.73517        -0.016265      0.045355     -0.013693
Au     17.74713     12.87651     14.33278        -0.025697      0.015301     -0.002430
Au     19.38032     15.39130     15.25244        -0.005998      0.023715     -0.036695
Au     14.93883     14.58137     15.77050        -0.013646     -0.036325      0.028531
Au     15.73690     15.27977     18.43091        -0.013803      0.032811     -0.038881
Au     15.90093     11.94716     16.24108         0.007426      0.038567     -0.031367
Au     17.66967     13.97374     16.92581        -0.012412      0.041924      0.000217
Au     13.70098     16.90318     14.93057         0.028852      0.047024      0.038274
Au     10.95444     16.59221     16.18923        -0.009010     -0.060516     -0.040999
Au     12.59988     18.83635     16.56785         0.043217     -0.042135      0.074159
Au     17.41339     19.53100     16.80482         0.004382      0.018126     -0.031203
Au     18.78662     20.86146     14.62987        -0.029974      0.026358     -0.004781
Au     14.87458     20.33527     16.00422        -0.015743     -0.040429     -0.006227
Au     15.15052     17.93865     17.54328        -0.031289      0.057930      0.049275
Au     17.65138     16.75085     17.04635        -0.001893     -0.018694     -0.034119
Au     16.26085     18.10226     14.67147        -0.033098      0.001546      0.023088
Au     19.24160     18.15606     15.18487         0.014166     -0.001471     -0.028182
