38
# total energy = -101.71902125 eVAu     12.81113     14.36773     11.87474         0.015643      0.028140     -0.019388
Au     12.70297     11.79166     12.73403        -0.013812      0.021599      0.029292
Au     11.36230     13.79240     14.39413         0.049255     -0.026734      0.075358
Au     17.40522     11.78407     13.30590        -0.079272      0.102955      0.044936
Au     14.93849     10.90621     14.15370        -0.005681     -0.037123     -0.004535
Au     20.04596     15.52132     12.79293        -0.054707      0.024049      0.023618
Au     16.46155     14.91707     14.11928         0.068170      0.013288     -0.025649
Au     15.42872     15.50272     11.09907        -0.024203      0.029342      0.012367
Au     17.79802     14.10099     11.83504         0.018717     -0.008763     -0.108755
Au     15.19694     12.89425     12.02728         0.022631     -0.005231     -0.010002
Au     13.01395     16.97544     11.05698        -0.010223     -0.044805     -0.062869
Au     11.29621     16.33638     13.33887        -0.094540      0.031122     -0.030875
Au     14.04228     16.23555     13.73468        -0.025194     -0.025574      0.024158
Au     12.71980     18.74222     13.18014        -0.033701     -0.009928      0.035379
Au     17.53238     19.59470     12.85582        -0.004030     -0.003702     -0.033317
Au     14.94372     20.15975     13.92945         0.050921     -0.053272      0.021864
Au     17.72518     16.88254     11.93958         0.047859      0.081234     -0.060754
Au     15.30551     18.30434     11.78687        -0.013487     -0.021814      0.007011
Au     19.91889     18.24268     13.22660        -0.024378     -0.026645      0.005327
Au     14.14038     13.55434     14.84091         0.047077      0.000995     -0.019527
Au     12.41837     13.41454     17.07439        -0.018338     -0.006296     -0.091740
Au     12.01161     11.22546     15.35107        -0.081730     -0.039388      0.027581
Au     13.31684     15.61327     18.47011        -0.045559      0.013966      0.093514
Au     17.78084     14.66048     17.07282        -0.023892      0.029912      0.014109
Au     15.22750     13.50290     18.01015         0.026561      0.023625      0.009896
Au     14.32827     11.20952     16.86151        -0.026862      0.028335     -0.004888
Au     16.74144     12.34131     15.95013         0.023626     -0.006269     -0.008762
Au     18.89925     13.70684     14.63146         0.086820     -0.033496      0.061660
Au     12.02436     16.04117     16.02487         0.054867      0.069065     -0.011153
Au     13.40467     18.53460     15.83285        -0.077558     -0.010345      0.028989
Au     17.49346     17.52085     17.34421        -0.015671     -0.021054     -0.000703
Au     18.53855     19.23418     15.41085         0.019723     -0.011274      0.025280
Au     15.96672     19.79378     16.52737         0.017378     -0.040552     -0.062090
Au     14.69877     18.03409     18.20456        -0.050004     -0.004449     -0.003893
Au     19.03808     16.41215     15.27440         0.084593      0.067913      0.029026
Au     16.30261     17.69626     14.57361         0.094939     -0.047717     -0.044615
Au     16.17125     15.84529     19.07438         0.030691     -0.059822      0.040950
Au     15.06264     15.87005     16.32728        -0.036624     -0.021288     -0.006804
