38
# total energy = -101.64737005 eVAu     13.98566     14.02863     11.68304        -0.009983     -0.006794     -0.013750
Au     12.89533     11.91899     13.12501         0.000676      0.007768     -0.003108
Au     11.65437     14.49394     13.60786         0.002761     -0.016898      0.017849
Au     15.64576     12.05853     12.87942        -0.006172     -0.001421     -0.000708
Au     19.32873     14.99446     12.87166        -0.005860     -0.002165      0.019301
Au     16.90248     14.34709     14.51639         0.001140     -0.011894     -0.009156
Au     18.39952     12.38334     12.88592        -0.006690      0.001371      0.011099
Au     16.84009     14.26740     11.51169        -0.007559     -0.014837     -0.003798
Au     12.64091     16.50742     11.99206         0.002652      0.002793     -0.034417
Au     13.09173     19.00499     13.13008         0.017625     -0.021617     -0.012414
Au     17.90855     19.53076     13.31954         0.005807     -0.012236      0.005561
Au     15.13352     16.32845     10.60207        -0.000707      0.005279      0.033401
Au     14.98861     16.23210     13.44264        -0.045075      0.017985     -0.030029
Au     17.69647     16.92514     11.59556         0.003084      0.005055     -0.025781
Au     15.57872     18.68899     12.01651         0.009357      0.003568     -0.024057
Au     19.96529     17.64877     13.03214        -0.017111      0.012210      0.026865
Au     14.03511     14.86026     18.44168         0.018946      0.000382      0.011923
Au     14.13283     13.90593     14.83671        -0.010643      0.000422     -0.004591
Au     13.14198     12.41476     17.50940        -0.008469     -0.010888      0.004731
Au     11.39716     12.30305     15.35833         0.009679      0.016147     -0.000567
Au     14.49822     11.17699     15.36718         0.014778      0.016536      0.011655
Au     11.93650     14.82933     16.47838         0.018027      0.015859      0.014749
Au     17.22795     11.64766     15.31187         0.006427      0.031169      0.014987
Au     18.05139     14.95184     17.23845         0.003529     -0.007216     -0.015160
Au     15.87944     13.16875     17.20278         0.016270     -0.029772     -0.019393
Au     19.43041     13.46319     15.31767        -0.027186      0.020047     -0.011228
Au     12.02780     17.02605     14.76054        -0.019028     -0.012522      0.016094
Au     13.08912     17.21884     17.40378        -0.004395     -0.016845     -0.025252
Au     13.02518     19.44601     15.85493         0.008711     -0.021176     -0.006543
Au     18.24443     17.77247     17.20197         0.005695     -0.019484     -0.006429
Au     17.57775     20.25316     16.08705         0.014919      0.001369      0.008098
Au     19.93591     16.18383     15.46865        -0.016569     -0.001625      0.010384
Au     15.47030     18.75986     17.09310         0.003042      0.004840      0.015620
Au     16.25558     16.51988     18.71136        -0.021020     -0.000895     -0.016503
Au     19.95890     19.07657     15.35005         0.000215      0.016156      0.007055
Au     17.34885     17.14578     14.54410         0.029959      0.025885     -0.027357
Au     15.35813     19.97404     14.48018         0.033441     -0.021597      0.017888
Au     15.35844     16.02677     16.17570        -0.020273      0.025038      0.042981
