38
# total energy = -102.08727034 eVAu     13.74072     11.89866     13.65347        -0.003892      0.115496      0.044302
Au     13.92026     15.40430     10.53908         0.013709     -0.035177      0.072915
Au     11.17753     15.92203     14.50750         0.064332     -0.026256      0.040206
Au     12.55802     14.30625     12.63574         0.003754     -0.047830      0.018631
Au     16.59550     12.13312     14.14063        -0.048319     -0.011356      0.029794
Au     19.28659     15.93942     14.53901         0.010076     -0.036491     -0.027134
Au     16.68399     15.41285     10.64587         0.070471     -0.047622     -0.011785
Au     15.09664     15.64482     13.28084        -0.051435      0.003379     -0.177296
Au     17.92271     14.20524     12.76515         0.009316      0.016719      0.030040
Au     15.38769     13.20946     11.83123         0.018357      0.028800      0.008541
Au     12.77087     17.15918     12.36132        -0.014178     -0.013578      0.040892
Au     12.06448     18.55011     14.61104        -0.037921     -0.037491      0.039630
Au     17.04710     19.69926     12.53494        -0.024548      0.081975      0.025831
Au     16.38634     17.75059     14.56488         0.025284      0.132893     -0.039677
Au     14.35935     19.38562     13.34340        -0.057913      0.044735     -0.017253
Au     18.07087     17.11417     12.29960         0.046241     -0.077673      0.039652
Au     15.37842     17.77959     11.30245        -0.005567      0.047272      0.040240
Au     19.00044     18.68717     14.55072         0.004389     -0.043779     -0.037763
Au     14.15017     14.06410     15.36722         0.002810     -0.150721      0.040114
Au     12.77943     12.66515     17.37311         0.056580      0.031189     -0.018666
Au     11.48366     13.08053     14.83647         0.105204      0.013903     -0.033453
Au     13.37611     15.25683     18.22919        -0.016844      0.017766      0.025929
Au     10.80914     14.61648     17.02566         0.032531     -0.006531     -0.024872
Au     18.17885     14.36436     17.73986        -0.005204     -0.015274     -0.082323
Au     15.52354     13.45045     17.95669        -0.104505     -0.045882     -0.028059
Au     16.69165     15.18280     15.55000         0.025202      0.007085      0.038599
Au     16.09441     16.18148     18.32621         0.020211     -0.008192      0.015706
Au     14.89149     11.31450     16.18390        -0.031393      0.086830     -0.024014
Au     17.52486     11.70912     16.91039         0.019959      0.038881     -0.014642
Au     18.93083     13.32669     15.19652        -0.068337     -0.001600      0.028296
Au     14.16260     19.58346     16.12544         0.050081      0.033928     -0.117914
Au     11.63932     17.23966     17.00600         0.048419      0.015229     -0.040691
Au     13.97002     17.95943     18.38598        -0.037372     -0.026455      0.033280
Au     18.94184     19.87467     17.02188         0.066220     -0.023958     -0.092460
Au     16.73489     20.46100     15.22466        -0.000759      0.044188      0.049038
Au     16.44130     18.92880     17.60969        -0.032662      0.009486      0.089218
Au     18.45682     17.07049     16.97732        -0.001996     -0.021514      0.005331
Au     14.16708     16.78333     15.76797        -0.150303     -0.092374      0.031816
