38
# total energy = -98.33756427 eVAu     12.35649     14.97192     11.10264        -1.184249      0.241509     -0.982742
Au     12.42627     13.09095     13.16427        -0.893995     -0.763441      0.325365
Au     11.39580     15.68625     13.56678        -1.033525     -0.426840     -0.146216
Au     14.20296     13.07766     11.08602         0.278090     -1.243444     -1.032338
Au     15.07620     12.48798     13.65564         0.559124     -0.787419     -0.482119
Au     17.17671     15.93948     13.78266        -1.165302      0.279198      0.586108
Au     14.97609     15.68826     10.50636         0.198815      0.715134     -1.100401
Au     14.34744     15.12048     13.06617         0.606042      0.506543      1.199958
Au     19.20036     14.31936     12.56658         0.774282     -1.138274     -0.632080
Au     17.75352     16.36824     11.18865         0.136717      0.339194     -1.200958
Au     16.64505     13.93578     11.83530         0.294860     -0.846717     -0.232619
Au     12.89925     17.41653     12.12099        -0.058183      0.801421     -0.941015
Au     11.27628     18.36522     14.13993        -1.119081      0.918220     -0.724859
Au     13.70250     19.46685     13.85742        -0.343976      0.583200     -0.776159
Au     18.05283     18.75594     12.71046         0.643073      0.509165     -0.864443
Au     19.85634     16.80279     12.99075         1.309195      0.769254     -0.370558
Au     15.98601     20.46897     13.01775        -0.318592      0.814403     -0.962305
Au     15.55590     17.77671     12.16164        -0.346328      0.452625     -0.609339
Au     14.02698     13.29102     17.69271        -0.556715     -0.554253      1.163389
Au     12.54780     14.33841     15.60966        -0.917402     -0.135675      0.207498
Au     13.31481     11.78799     15.52914        -0.881916     -1.042864     -0.026864
Au     13.23711     15.95679     17.69004        -0.515174      0.240396      0.926680
Au     17.59311     13.23243     14.45853         0.295439     -1.013204     -0.363326
Au     19.36446     15.22518     15.22017         0.908712     -0.192045      0.882389
Au     15.37716     14.68488     15.70437        -0.250414      0.850859     -1.053853
Au     15.72669     15.26157     18.41226         0.225968      0.373334      1.105344
Au     15.89787     11.99406     16.25517         0.729293     -1.155495      0.263034
Au     17.67327     13.85874     17.09058         0.934175     -0.462308      0.798978
Au     13.64064     16.91775     14.99736         1.060536     -0.743936     -0.297861
Au     11.14530     16.70490     16.18431        -0.982904     -0.440907      0.839588
Au     12.72975     19.01085     16.41120        -0.348703      0.921394      1.026481
Au     17.38602     19.25478     17.16432         0.617552      0.096617      1.388306
Au     17.81115     20.54763     14.89971         1.067139      1.356590     -0.115149
Au     15.16704     20.42658     15.99255        -0.753412      1.139109      0.479591
Au     15.04641     17.91420     17.36031        -0.016131     -0.109825      1.061455
Au     17.38656     16.51371     16.69053         0.332179      0.258040      0.531494
Au     16.17540     18.27774     14.81082        -0.328815     -1.158504     -0.262270
Au     19.01310     18.08454     15.20562         1.043625      0.048944      0.391816
