38
# total energy = -102.12251272 eVAu     13.74328     11.90094     13.65319         0.004750      0.060414     -0.022354
Au     13.93605     15.40910     10.56399         0.019499     -0.049289     -0.010927
Au     11.19230     15.92202     14.51401         0.044152     -0.080183      0.020190
Au     12.54341     14.28994     12.62436         0.000896     -0.008363      0.025824
Au     16.59118     12.12850     14.14742        -0.031562     -0.005193     -0.017713
Au     19.29533     15.92012     14.53340         0.027349      0.040643      0.050990
Au     16.70696     15.41223     10.63470         0.027619     -0.019804      0.013169
Au     15.08223     15.63573     13.25860         0.019993      0.070217      0.020467
Au     17.92817     14.20732     12.76955        -0.042678     -0.028925     -0.021093
Au     15.39784     13.20981     11.83029         0.044489     -0.009814      0.003387
Au     12.76198     17.15725     12.36369        -0.018619      0.019189      0.059220
Au     12.06700     18.54237     14.62714        -0.024368      0.047280     -0.038559
Au     17.04663     19.70976     12.54873        -0.019791      0.059582     -0.010989
Au     16.36256     17.78189     14.54610        -0.143320     -0.069290      0.027936
Au     14.33355     19.41407     13.31684        -0.061418     -0.003250     -0.010164
Au     18.07385     17.10405     12.31134         0.008122      0.002763      0.021303
Au     15.38100     17.78848     11.30562         0.030610      0.014522      0.042737
Au     19.00598     18.66985     14.54827        -0.028104     -0.052748     -0.025656
Au     14.15921     14.04753     15.36891         0.085216     -0.034553     -0.025317
Au     12.79289     12.67249     17.37381        -0.074648      0.005257      0.046477
Au     11.49745     13.07656     14.83635         0.027888      0.015255      0.004405
Au     13.37412     15.25399     18.25178        -0.024863      0.037601      0.018978
Au     10.82015     14.62210     17.02460         0.019126     -0.053515     -0.023334
Au     18.17541     14.37375     17.72165        -0.041140     -0.033270     -0.048459
Au     15.51396     13.44438     17.96266        -0.014376      0.022081      0.010577
Au     16.68674     15.20756     15.53983        -0.040664      0.070915     -0.016593
Au     16.08682     16.18086     18.32476         0.052211     -0.045505      0.013021
Au     14.88638     11.32698     16.18834         0.006996     -0.021926     -0.037918
Au     17.52175     11.71356     16.91422         0.021807      0.009368     -0.004357
Au     18.91909     13.32073     15.19600        -0.032083     -0.028313      0.034166
Au     14.18654     19.57743     16.10161         0.056792     -0.047286     -0.032291
Au     11.63705     17.24487     17.01629         0.009842      0.012840      0.011386
Au     13.97030     17.95061     18.38158        -0.014589      0.057233     -0.023410
Au     18.95409     19.86684     17.01180         0.045210     -0.025841     -0.079052
Au     16.74027     20.46681     15.24091         0.058019      0.058721      0.065728
Au     16.44789     18.93478     17.64074        -0.051431      0.022004      0.028989
Au     18.44734     17.07138     16.97482         0.015435     -0.005822     -0.035140
Au     14.12879     16.75860     15.75314         0.037629     -0.002994     -0.035625
