38
# total energy = -101.66675398 eVAu     12.19135     14.87173     11.07123        -0.026213      0.044261     -0.067843
Au     12.35940     12.98954     13.30458         0.021958     -0.115234      0.067213
Au     11.41118     15.60022     13.63249        -0.116297      0.000518     -0.012246
Au     14.21867     13.03477     11.04410        -0.063139      0.010336     -0.091784
Au     15.16581     12.09127     13.47051        -0.011598      0.029132      0.109413
Au     16.96164     15.63719     13.94710        -0.126340      0.092026     -0.021876
Au     14.98320     15.88381     10.56987        -0.021723     -0.013770      0.050646
Au     14.33982     15.01652     13.15255         0.008962     -0.046551     -0.165161
Au     19.23520     14.44532     12.58501         0.043982      0.055461      0.007846
Au     17.64157     16.48938     11.31182         0.006001      0.024565      0.075273
Au     16.73044     13.76665     11.71456         0.003500      0.040778      0.001097
Au     12.94654     17.41853     11.91246        -0.083637     -0.071702     -0.003796
Au     11.25479     18.36156     14.03835         0.050478      0.008913     -0.051188
Au     13.69628     19.48602     13.60409        -0.010944      0.111753      0.035285
Au     18.15042     18.92272     12.59509         0.066720      0.042699      0.019231
Au     20.10524     17.04539     12.88338         0.063764     -0.053566     -0.011608
Au     16.14888     20.64156     13.33527         0.064694     -0.031368     -0.004448
Au     15.51700     18.39471     11.67566         0.066510     -0.060955      0.114636
Au     13.88564     13.19061     17.79088         0.016668      0.051507      0.035635
Au     11.87820     14.08288     15.95318         0.129162      0.021197     -0.050235
Au     13.22206     11.67257     15.53756        -0.044597     -0.010057     -0.116321
Au     13.13936     15.99259     17.76102         0.009094     -0.006887      0.030835
Au     17.74340     12.91322     14.32587        -0.030465     -0.093660      0.084874
Au     19.37955     15.33075     15.26825         0.026925      0.037636     -0.006368
Au     15.12112     14.61798     15.74215        -0.025764     -0.153298      0.205867
Au     15.70926     15.29543     18.48056        -0.011996     -0.080777     -0.028818
Au     15.90200     11.90200     16.18003         0.072796      0.084705      0.028037
Au     17.66536     13.91805     16.98058        -0.037843     -0.014606     -0.012797
Au     13.74391     16.87258     15.05532        -0.154345      0.178991     -0.035389
Au     11.00430     16.67211     16.21040        -0.026624     -0.056926      0.018318
Au     12.64189     18.95763     16.50082         0.111981     -0.081405     -0.016861
Au     17.40447     19.44834     16.97250         0.072550      0.073204     -0.017126
Au     18.50086     20.84709     14.73813         0.062798     -0.041150     -0.062079
Au     15.02184     20.35992     15.92666        -0.210139     -0.037011      0.103653
Au     15.12115     17.95509     17.58367        -0.091718     -0.012676      0.011475
Au     17.64557     16.68050     17.12452         0.064319      0.051138     -0.128722
Au     16.24313     18.09804     14.70951         0.014188      0.028357     -0.047614
Au     19.11614     18.11888     15.20964         0.116330     -0.005578     -0.047055
