38
# total energy = -101.86558993 eVAu     12.14185     14.88417     11.03379         0.019180     -0.008045      0.028339
Au     12.30727     12.90726     13.27364         0.020487      0.015677     -0.023311
Au     11.29319     15.54593     13.58087         0.006431      0.037344      0.007635
Au     14.17755     13.02986     11.02941        -0.006793      0.018761      0.015732
Au     15.17825     12.07621     13.47243        -0.004599      0.028226     -0.013021
Au     16.83068     15.50822     14.07206         0.034642     -0.007743     -0.001676
Au     15.00672     15.90831     10.61301         0.012951      0.009021     -0.009066
Au     14.24885     14.95846     13.11402        -0.011310     -0.005778     -0.047779
Au     19.21311     14.44977     12.61324         0.021924      0.013513      0.011348
Au     17.65797     16.49074     11.47074        -0.015084      0.003383     -0.008780
Au     16.70486     13.78768     11.72259        -0.028176     -0.005981     -0.009602
Au     12.95882     17.40920     11.93131         0.005595     -0.009764      0.004119
Au     11.32509     18.34241     14.08050         0.024677     -0.003958      0.017324
Au     13.71550     19.57230     13.56737        -0.015858     -0.005426     -0.019766
Au     18.26829     18.94419     12.60944        -0.021258     -0.005119      0.012882
Au     20.22881     17.01936     12.86552        -0.009708      0.014087      0.010014
Au     16.26686     20.60269     13.57982         0.002800     -0.019367      0.004162
Au     15.58682     18.36468     11.82958         0.003535     -0.018271      0.016153
Au     13.84694     13.18391     17.88281        -0.002994      0.017928     -0.002344
Au     11.91593     14.04795     15.89520         0.026875     -0.008714      0.004842
Au     13.26823     11.68042     15.52240        -0.034251     -0.013542      0.007641
Au     13.12893     16.05439     17.72291        -0.011032     -0.018505      0.008179
Au     17.76033     12.83481     14.30981        -0.018272     -0.025032      0.017078
Au     19.39649     15.44256     15.21022        -0.001587      0.023878      0.010224
Au     14.85811     14.57072     15.74846         0.018283     -0.027178      0.065577
Au     15.72745     15.33600     18.38253         0.010938     -0.024449     -0.006273
Au     15.91884     11.98291     16.22594         0.008814      0.000721      0.010651
Au     17.65698     14.04213     16.86822         0.015139      0.029595     -0.021476
Au     13.68420     16.92290     14.93182        -0.041158      0.042146      0.002566
Au     10.88157     16.54290     16.17113         0.012858      0.024903     -0.008798
Au     12.57837     18.74559     16.70965        -0.027711     -0.027850     -0.008478
Au     17.40780     19.59644     16.72287        -0.029520     -0.010296     -0.005747
Au     18.81947     20.89907     14.59588         0.017636      0.006506     -0.010385
Au     14.79942     20.27552     16.02702        -0.006580      0.010488     -0.015489
Au     15.17353     17.99911     17.64299         0.012486     -0.009453     -0.022913
Au     17.65026     16.81427     16.99990         0.008890     -0.035652      0.012136
Au     16.25859     18.04098     14.69184        -0.000931      0.000556     -0.025201
Au     19.30472     18.20911     15.17843         0.002685     -0.006608     -0.006494
