38
# total energy = -101.78620630 eVAu     13.76991     11.87518     13.63860         0.026496     -0.009368      0.013758
Au     13.97123     15.44804     10.57817        -0.024697     -0.015393      0.017986
Au     11.47732     15.86484     14.55501        -0.172311      0.019498      0.009040
Au     12.62574     14.23366     12.58984         0.046206      0.071770     -0.072385
Au     16.53613     12.26790     14.20542         0.010287     -0.039148     -0.040535
Au     19.26066     16.07510     14.53614         0.023826     -0.046039      0.048821
Au     16.73264     15.38718     10.55727        -0.031793      0.064938     -0.030443
Au     15.27493     15.88548     13.31252         0.026218     -0.042142      0.054768
Au     17.90360     14.28313     12.79534         0.030737     -0.008513      0.082697
Au     15.37267     13.32262     11.88191        -0.043796     -0.037433      0.039624
Au     12.78673     17.14703     12.40456         0.041338     -0.105505     -0.075911
Au     11.92497     18.58444     14.56758        -0.062537      0.008307      0.038510
Au     17.02450     19.67319     12.60723         0.029383      0.041809      0.026466
Au     16.95094     17.82820     14.77596        -0.089973      0.004483     -0.030845
Au     14.44506     19.10750     13.57447         0.049603      0.060657     -0.000914
Au     18.10854     17.09279     12.15636        -0.047500     -0.028756     -0.024941
Au     15.40903     17.81659     11.25443        -0.009511      0.015195     -0.023001
Au     19.47552     18.80882     13.85264        -0.006957      0.040821      0.071258
Au     14.12139     14.13070     15.29686        -0.018809      0.054530      0.014127
Au     12.69131     12.68242     17.36790         0.004033      0.010321     -0.053155
Au     11.54407     13.06381     14.85248        -0.068244     -0.037670      0.086002
Au     13.33466     15.26419     18.18842        -0.060138     -0.072511      0.047129
Au     10.79099     14.72467     17.02149         0.047851     -0.116968     -0.052699
Au     18.06468     14.25083     17.86416         0.075768     -0.006249      0.063815
Au     15.37480     13.37536     17.94101         0.038446      0.012210      0.039048
Au     16.67957     15.14598     15.61808        -0.074494     -0.010439     -0.067421
Au     16.03052     16.08733     18.47159         0.026604     -0.010312      0.000913
Au     14.79721     11.25827     16.18765        -0.034262      0.040838     -0.026026
Au     17.42261     11.72374     16.85765        -0.002253      0.002497      0.007399
Au     18.90012     13.44291     15.27267         0.050562      0.000172     -0.066530
Au     13.80158     19.54130     16.34306         0.058430      0.019104     -0.007051
Au     11.70016     17.31326     17.01947         0.116786      0.043663     -0.045598
Au     13.94480     17.89758     18.59190        -0.053398      0.078130     -0.010566
Au     18.75330     19.60948     16.38988         0.012493     -0.002245      0.010188
Au     16.24668     20.50812     15.27436         0.054914     -0.003222     -0.039724
Au     16.32761     18.79755     17.53957        -0.009749     -0.012525     -0.006428
Au     18.41273     16.92276     17.17679         0.068439      0.026831     -0.005046
Au     14.40664     16.87324     15.80261        -0.028001     -0.011336      0.007673
