38
# total energy = -101.83945392 eVAu     12.11492     14.85294     11.05419         0.022434      0.038475      0.041148
Au     12.30531     12.88117     13.27798         0.022203      0.016411      0.020867
Au     11.29691     15.52755     13.60715         0.000886      0.022176     -0.036911
Au     14.18224     13.04339     11.02220         0.022431     -0.008761      0.027271
Au     15.16003     12.13616     13.51037         0.000458     -0.058290     -0.047570
Au     16.83190     15.58023     14.04493         0.047341     -0.111001     -0.027758
Au     14.99051     15.91349     10.61385         0.033274     -0.004397      0.016978
Au     14.24563     14.93773     13.12813         0.003823      0.005665     -0.071230
Au     19.19497     14.50506     12.62906         0.009325     -0.019386     -0.000105
Au     17.64651     16.53163     11.43465        -0.014043     -0.020402      0.024025
Au     16.70670     13.80910     11.72341        -0.042443     -0.002931      0.020242
Au     12.95912     17.39251     11.92967        -0.006364     -0.010509     -0.016042
Au     11.32093     18.32540     14.02758        -0.002899      0.032886     -0.009558
Au     13.71117     19.59166     13.56582        -0.015618     -0.047565      0.037347
Au     18.25294     18.98057     12.59083        -0.010647     -0.063144      0.016790
Au     20.21975     17.06310     12.85335        -0.035348      0.007086      0.026400
Au     16.25559     20.65333     13.52335         0.009857     -0.060363      0.005263
Au     15.55895     18.38836     11.80674         0.047751     -0.009104      0.024593
Au     13.84364     13.14494     17.87503         0.036994      0.047337     -0.025740
Au     11.96374     14.05877     15.90221        -0.023555     -0.009146      0.005125
Au     13.23037     11.63096     15.53935         0.012941      0.056275     -0.034276
Au     13.15099     16.01396     17.73529        -0.009522      0.032665     -0.017730
Au     17.74513     12.87481     14.33466        -0.009462      0.028008     -0.021726
Au     19.37943     15.39554     15.24921        -0.005878      0.013924     -0.040421
Au     14.93073     14.58115     15.76838        -0.014810     -0.062095      0.080967
Au     15.73950     15.28299     18.43016        -0.029937      0.023271     -0.053885
Au     15.90150     11.95109     16.24297        -0.003416      0.026794     -0.030491
Au     17.66982     13.97426     16.92360        -0.006613      0.066611      0.007788
Au     13.70117     16.90202     14.92733         0.013579      0.085007      0.046322
Au     10.95162     16.58939     16.18280        -0.013257     -0.077012     -0.013847
Au     12.59574     18.82724     16.57458         0.071220     -0.027255      0.070240
Au     17.41161     19.53464     16.79751         0.014130      0.022098     -0.030277
Au     18.79445     20.86158     14.62458        -0.028061      0.035432      0.002020
Au     14.87006     20.33479     16.00616        -0.027283     -0.056106     -0.007072
Au     15.15306     17.94036     17.54675        -0.043964      0.065104      0.044696
Au     17.65020     16.75422     17.04058         0.005198     -0.029607     -0.027001
Au     16.26272     18.09820     14.67172        -0.048243      0.056997      0.025704
Au     19.24705     18.15884     15.18321         0.017519     -0.005149     -0.032148
