38
# total energy = -101.20332807 eVAu     12.27078     14.95525     11.01848        -0.048934      0.042576     -0.026347
Au     12.41668     13.06580     13.24168         0.023481     -0.012460      0.051646
Au     11.29495     15.66387     13.52200         0.054813      0.031895      0.121977
Au     14.19614     13.00578     10.96003         0.041364     -0.051278      0.002261
Au     15.14404     12.25226     13.53621        -0.031112     -0.115819      0.054211
Au     17.06645     15.89978     13.82499        -0.024087     -0.120031      0.012281
Au     14.97636     15.77044     10.45992         0.009825      0.028856      0.004229
Au     14.41331     15.12201     13.10418        -0.014150     -0.022271     -0.020137
Au     19.29425     14.28136     12.53751        -0.021383      0.013657     -0.021401
Au     17.73196     16.39659     11.16136        -0.043525      0.053335      0.043893
Au     16.69452     13.79016     11.78577         0.066891      0.019531     -0.040687
Au     12.81945     17.50314     11.95080         0.018934     -0.063342     -0.011246
Au     11.14635     18.43838     14.07779         0.019880     -0.012913     -0.061426
Au     13.62894     19.52893     13.71781         0.053324     -0.018599     -0.049365
Au     18.19942     18.85236     12.62101        -0.121061      0.015217     -0.025161
Au     20.02727     16.86850     12.91521         0.073258      0.038848     -0.033553
Au     16.02192     20.53925     12.95730        -0.009888      0.028588      0.059473
Au     15.50667     18.02390     11.92603         0.084028      0.139517     -0.060126
Au     13.98956     13.22152     17.75879        -0.068078      0.047908      0.018171
Au     12.25944     14.25946     15.76313        -0.136885     -0.027549      0.109116
Au     13.25195     11.67114     15.53179         0.013304      0.000353     -0.088009
Au     13.11859     15.96935     17.87317         0.047206      0.007950     -0.054998
Au     17.69904     13.02746     14.40820         0.001074     -0.030650      0.011449
Au     19.39839     15.22817     15.25340        -0.043130      0.019606      0.028705
Au     15.34219     14.71355     15.69135        -0.036535     -0.047772      0.093379
Au     15.71981     15.28485     18.50561        -0.010504      0.038406      0.022481
Au     15.93527     11.90595     16.25265         0.015173     -0.051457     -0.095746
Au     17.73093     13.81542     17.14244        -0.012180      0.045019     -0.081282
Au     13.68999     16.86737     15.05389         0.038851     -0.013273      0.027485
Au     11.07978     16.73013     16.22066        -0.064941     -0.019434      0.004876
Au     12.71554     19.04834     16.46760        -0.072459     -0.020627      0.043552
Au     17.44845     19.32889     17.21437        -0.059370     -0.013779     -0.000499
Au     17.94148     20.67317     14.85430         0.156703      0.088409     -0.053449
Au     15.06002     20.45094     16.03187         0.073963     -0.020168     -0.037705
Au     15.06192     17.94621     17.64383         0.012498     -0.048058     -0.016328
Au     17.52204     16.57302     16.88001         0.086395      0.108917      0.029216
Au     16.16876     18.23001     14.82224        -0.003691     -0.010281     -0.020909
Au     19.16403     18.12039     15.21198        -0.069052     -0.048831      0.059973
