38
# total energy = -101.82690115 eVAu     12.76062     14.35079     11.85030         0.043617      0.023407      0.017234
Au     12.70873     11.80576     12.86718         0.007492     -0.000710      0.043585
Au     11.39725     13.81128     14.43887         0.013370     -0.002870      0.002344
Au     17.40169     12.09095     13.35055         0.040689     -0.001709     -0.017612
Au     15.03267     10.89315     14.11391         0.012777      0.031355     -0.000546
Au     19.90075     15.48381     12.84427        -0.066269     -0.013842      0.022184
Au     16.58714     14.83868     14.05909         0.052401     -0.007236     -0.022300
Au     15.37554     15.54583     11.02544        -0.032573     -0.000698      0.000711
Au     17.74764     14.19281     11.59216        -0.029600     -0.001227      0.009743
Au     15.14999     12.91083     11.95380         0.015852      0.017476      0.013971
Au     12.96413     16.97813     11.05233        -0.012580     -0.039481      0.002586
Au     11.28109     16.31496     13.33055         0.033838      0.012544     -0.003265
Au     14.10182     16.15646     13.69637        -0.054734      0.032657     -0.022525
Au     12.70215     18.68772     13.22963         0.010129     -0.039370      0.004206
Au     17.51944     19.57703     12.83895        -0.007423     -0.039933      0.057044
Au     14.96294     20.05747     13.94101         0.015158      0.009627     -0.020415
Au     17.74867     16.96173     11.74906        -0.018440     -0.018924      0.006658
Au     15.27038     18.29232     11.77196         0.013030      0.001507      0.005608
Au     19.88818     18.20796     13.23379        -0.012581     -0.002689      0.003175
Au     14.21664     13.52616     14.80806         0.007670     -0.029235     -0.006752
Au     12.41582     13.44724     17.02587         0.008010     -0.004111     -0.014015
Au     11.79869     11.19451     15.43086         0.016899      0.016498     -0.002861
Au     13.31008     15.58898     18.48197         0.030948      0.015262     -0.015431
Au     17.79619     14.68049     17.16986        -0.022704     -0.005663      0.016508
Au     15.20700     13.47662     18.05690         0.018312      0.030524     -0.035340
Au     14.24597     11.25710     16.76635        -0.027187      0.009867     -0.033312
Au     16.75907     12.33534     16.03746         0.008369      0.022064     -0.019830
Au     19.03392     13.73312     14.85595        -0.027621     -0.002852      0.018754
Au     12.14553     16.12561     15.98985        -0.015503     -0.001009      0.003707
Au     13.30266     18.68570     15.89468         0.005055     -0.008186     -0.004714
Au     17.47771     17.50338     17.37434         0.004945      0.003294     -0.008859
Au     18.53832     19.21311     15.42604        -0.050242     -0.023707     -0.045995
Au     15.96359     19.69988     16.48305         0.025171      0.006238      0.007022
Au     14.64682     17.99213     18.16917         0.001343     -0.036676     -0.016929
Au     19.19142     16.44622     15.41060        -0.019486     -0.018627      0.004076
Au     16.39997     17.56478     14.51616         0.051163      0.085121     -0.009642
Au     16.13936     15.84304     19.11048        -0.015244     -0.037533     -0.000184
Au     15.12526     15.79202     16.29514        -0.024051      0.018847      0.061410
