38
# total energy = -101.86114791 eVAu     13.76461     11.90172     13.65122         0.003652      0.000523      0.007578
Au     13.95158     15.42078     10.55945        -0.025207     -0.002924      0.020727
Au     11.24083     15.88251     14.49074         0.016020      0.010672      0.013154
Au     12.61223     14.26950     12.61620         0.019992      0.015007     -0.023514
Au     16.57848     12.18791     14.15379        -0.006594     -0.002990      0.026382
Au     19.25826     16.06020     14.56381        -0.001020     -0.000280      0.005925
Au     16.70783     15.40876     10.57429         0.002804     -0.007241      0.020540
Au     15.28032     15.85139     13.31944        -0.023630     -0.020669      0.001621
Au     17.90176     14.28063     12.80972        -0.012314      0.005410     -0.037025
Au     15.36916     13.31528     11.89309        -0.012082     -0.012553     -0.018919
Au     12.80232     17.11359     12.41715         0.017111      0.005886     -0.025356
Au     11.93638     18.56683     14.54928        -0.003321     -0.006398      0.009979
Au     17.04507     19.70648     12.59546        -0.005366     -0.003235     -0.002933
Au     16.89317     17.81138     14.76062         0.000359      0.000113     -0.007203
Au     14.44085     19.17413     13.53909        -0.013512      0.001738     -0.000962
Au     18.08548     17.09455     12.19073        -0.014963     -0.005469     -0.016912
Au     15.39188     17.82468     11.28129        -0.003942     -0.016440      0.002014
Au     19.42737     18.79465     13.93401        -0.028630      0.007393      0.052078
Au     14.08453     14.16032     15.30640         0.003141     -0.002697      0.001675
Au     12.72452     12.68694     17.35115         0.020787     -0.009777     -0.015462
Au     11.51008     13.06318     14.84033         0.005410     -0.003301      0.024480
Au     13.32365     15.24571     18.28293        -0.007653     -0.006356     -0.025553
Au     10.81683     14.68460     17.00281        -0.016881     -0.008509      0.001501
Au     18.10573     14.26547     17.86023         0.005962      0.006460     -0.005539
Au     15.40189     13.39280     17.98122         0.010675     -0.010057     -0.024225
Au     16.66428     15.12051     15.63368         0.039556      0.002261     -0.002465
Au     16.04351     16.09376     18.46879        -0.002174      0.011007      0.001101
Au     14.81988     11.30603     16.17099        -0.014988      0.019616     -0.003832
Au     17.43704     11.75014     16.85516         0.014612     -0.007349     -0.011662
Au     18.91438     13.43076     15.24635        -0.004345     -0.023202      0.026303
Au     13.86053     19.54471     16.28508         0.003765      0.021328      0.001484
Au     11.76478     17.25656     16.95499        -0.000053      0.018594      0.008207
Au     13.93978     17.91017     18.56785        -0.013027      0.002213     -0.027753
Au     18.78061     19.63384     16.46522         0.039170      0.036497      0.038944
Au     16.32819     20.51542     15.24656         0.020177     -0.002972     -0.017392
Au     16.33714     18.78616     17.51716        -0.005977      0.015896      0.013744
Au     18.43940     16.93661     17.16715         0.006299     -0.008141     -0.009777
Au     14.41125     16.86658     15.81759        -0.013814     -0.020051     -0.000955
