38
# total energy = -101.76095443 eVAu     12.82032     14.36784     11.86848        -0.055143      0.027128     -0.005311
Au     12.70037     11.80476     12.74618        -0.002291     -0.022710      0.067140
Au     11.38259     13.79005     14.41392        -0.002081      0.051226      0.004293
Au     17.37639     11.82192     13.32253         0.036299      0.101364     -0.001225
Au     14.94159     10.90936     14.15269        -0.086622     -0.057736      0.025762
Au     20.02514     15.53222     12.80246        -0.026496     -0.048390      0.002773
Au     16.47379     14.92760     14.11588         0.074498     -0.029919     -0.033665
Au     15.42405     15.50862     11.09209         0.040452      0.021754     -0.006206
Au     17.79069     14.11513     11.82495         0.035486     -0.002274     -0.111647
Au     15.19266     12.89758     12.00118         0.005509     -0.036452      0.010251
Au     13.02283     16.96474     11.05064        -0.077220      0.035159     -0.023828
Au     11.28687     16.33279     13.33565        -0.060782     -0.011157     -0.024407
Au     14.03248     16.22625     13.74353        -0.009313      0.010852      0.004019
Au     12.71898     18.73021     13.19374        -0.022016     -0.031613     -0.020600
Au     17.53532     19.58611     12.84950        -0.014631      0.027161     -0.014279
Au     14.95388     20.13445     13.93576         0.008954     -0.048552     -0.011662
Au     17.73664     16.90172     11.89630         0.029754      0.018598     -0.059807
Au     15.30655     18.29380     11.78166        -0.021233      0.020721      0.035777
Au     19.91594     18.23760     13.22701         0.027075      0.035668     -0.005697
Au     14.16361     13.55588     14.83171         0.043322     -0.039785     -0.022505
Au     12.41983     13.41854     17.04632         0.000660      0.053204      0.011744
Au     11.98084     11.20809     15.36092        -0.020567     -0.048853      0.001599
Au     13.31189     15.60817     18.47806        -0.029055     -0.023490      0.053103
Au     17.78259     14.66415     17.08215         0.036244      0.024398     -0.017360
Au     15.23837     13.50232     18.00843        -0.035881      0.020120      0.046445
Au     14.31966     11.22477     16.85795        -0.048881     -0.006133     -0.051623
Au     16.75616     12.33784     15.97198        -0.005288     -0.032549     -0.018723
Au     18.90198     13.71727     14.64683         0.101338     -0.026144      0.052359
Au     12.01332     16.07247     16.03373         0.050385     -0.017999     -0.021271
Au     13.36249     18.54907     15.85161        -0.007522      0.043162      0.008214
Au     17.49656     17.50963     17.34459        -0.036734      0.025368     -0.005185
Au     18.54434     19.22475     15.41118         0.000831      0.019709      0.026550
Au     15.96761     19.77198     16.51012         0.010863     -0.049652     -0.009879
Au     14.68788     18.02568     18.19271        -0.005699     -0.038266      0.021801
Au     19.07754     16.42122     15.30164         0.063484      0.007465      0.029262
Au     16.32325     17.67215     14.56200         0.048370     -0.004784     -0.019681
Au     16.18109     15.83404     19.07058        -0.038556      0.022113      0.076747
Au     15.04872     15.86231     16.32535        -0.007514      0.011288      0.006719
