38
# total energy = -101.82982428 eVAu     12.76295     14.34807     11.85092         0.034496     -0.006723      0.021905
Au     12.71148     11.80425     12.87935         0.011773      0.002076      0.024185
Au     11.39556     13.81155     14.43812         0.015748      0.003815      0.011830
Au     17.41584     12.10328     13.34674         0.034886     -0.015421     -0.016912
Au     15.04840     10.90265     14.10903         0.011985      0.013517     -0.002308
Au     19.88182     15.47578     12.85053        -0.057392     -0.008994      0.019938
Au     16.59725     14.83278     14.05412        -0.013095      0.045297      0.011183
Au     15.36674     15.54988     11.01324        -0.014652     -0.018728      0.009793
Au     17.73763     14.19777     11.57681        -0.024956     -0.010003     -0.014195
Au     15.15193     12.91206     11.95092         0.015935      0.015236      0.020407
Au     12.95881     16.97192     11.05418        -0.017031     -0.002402     -0.021235
Au     11.28540     16.31613     13.33047         0.009110      0.000156      0.006595
Au     14.10413     16.15277     13.69116         0.001978      0.026245      0.018360
Au     12.70746     18.68491     13.22881         0.017666     -0.016152      0.017219
Au     17.51902     19.57553     12.84188        -0.019888     -0.026498      0.020708
Au     14.96771     20.05921     13.94126        -0.007720     -0.001109     -0.029770
Au     17.74084     16.96312     11.74412        -0.013856     -0.014816      0.002745
Au     15.26570     18.29454     11.76785         0.015154      0.009358      0.015174
Au     19.88106     18.19974     13.23545         0.006783     -0.004997     -0.006110
Au     14.21572     13.52610     14.80851         0.030170     -0.000631     -0.011646
Au     12.41497     13.44688     17.02778         0.003636      0.006840     -0.020769
Au     11.78544     11.19523     15.43623         0.007628      0.015518      0.000170
Au     13.31370     15.59039     18.47935         0.003297      0.002833     -0.009321
Au     17.79835     14.68038     17.18511        -0.017745     -0.016253     -0.004269
Au     15.20763     13.47438     18.05436         0.008358      0.000908     -0.040911
Au     14.23940     11.25903     16.75565        -0.008007      0.006894     -0.021328
Au     16.76286     12.33594     16.03845         0.000482      0.020656     -0.023667
Au     19.03721     13.73321     14.87473        -0.008619     -0.015098      0.029818
Au     12.15137     16.12680     15.98772        -0.010834      0.006587      0.004206
Au     13.29903     18.69580     15.89758         0.016038     -0.021266     -0.010268
Au     17.47747     17.50425     17.38080         0.000064      0.012147     -0.015678
Au     18.53577     19.21270     15.42354        -0.034033     -0.020940     -0.007961
Au     15.96718     19.70224     16.48041         0.014116     -0.008889      0.025154
Au     14.65117     17.98961     18.16547        -0.000883     -0.009653     -0.025546
Au     19.18905     16.44599     15.41963        -0.013224     -0.016541      0.002846
Au     16.40475     17.56370     14.51396         0.011076      0.028066     -0.000342
Au     16.13393     15.83711     19.11133         0.001467     -0.009370      0.027094
Au     15.13012     15.78743     16.29644        -0.009909      0.028336     -0.007093
