38
# total energy = -102.03011930 eVAu     13.73412     11.93548     13.66713         0.018143     -0.106974     -0.034183
Au     13.88369     15.37713     10.51428         0.113650      0.082049      0.051650
Au     11.16976     15.91521     14.51014         0.021096      0.000036     -0.028415
Au     12.60001     14.33012     12.66244        -0.119192     -0.073858     -0.057479
Au     16.58562     12.14125     14.13709         0.030334     -0.008371      0.005552
Au     19.26941     15.95981     14.53433         0.038654      0.004808      0.032295
Au     16.65890     15.39544     10.66197         0.057494      0.045040     -0.046276
Au     15.11416     15.67039     13.27800        -0.000361     -0.026400      0.000337
Au     17.91995     14.20865     12.78055        -0.020068      0.009265     -0.061099
Au     15.36742     13.21912     11.83737         0.055685     -0.007858     -0.012640
Au     12.78697     17.15386     12.37153        -0.035810      0.021462     -0.015176
Au     12.03653     18.55025     14.59085         0.053987      0.010916      0.026518
Au     17.03772     19.71237     12.51182         0.020081     -0.049935      0.078308
Au     16.45407     17.71817     14.60082        -0.031781      0.121990     -0.041975
Au     14.39854     19.33453     13.40553        -0.086322      0.085128     -0.125985
Au     18.08454     17.10166     12.28556        -0.055384      0.050559      0.010423
Au     15.36874     17.77961     11.31046         0.034646     -0.005062     -0.021628
Au     19.00369     18.71893     14.53072         0.081501     -0.074691     -0.087536
Au     14.14733     14.07186     15.38087        -0.047189     -0.042695     -0.057799
Au     12.77151     12.65837     17.36679         0.000366      0.028886     -0.001165
Au     11.48817     13.09247     14.82517        -0.002535     -0.030036      0.037099
Au     13.37464     15.26938     18.18568        -0.016895     -0.042872      0.136141
Au     10.79510     14.60337     17.01700         0.033598      0.049259      0.022213
Au     18.19243     14.33161     17.76046        -0.075718      0.076917     -0.035592
Au     15.49485     13.44250     17.92763         0.088900      0.023372      0.089908
Au     16.68979     15.12951     15.57763         0.059088      0.121598     -0.021712
Au     16.11682     16.18195     18.33953        -0.074286     -0.030923     -0.005903
Au     14.89108     11.32194     16.16505        -0.019395     -0.028782      0.045390
Au     17.53654     11.71117     16.89541        -0.045099      0.003638      0.022737
Au     18.93268     13.34867     15.20000        -0.000921     -0.058731      0.025690
Au     14.11837     19.62002     16.12996         0.045898     -0.135552      0.051271
Au     11.66349     17.23286     16.95946        -0.035937      0.017950      0.129411
Au     13.95281     17.96643     18.42097         0.043588     -0.026862     -0.093877
Au     18.93723     19.87868     16.99840        -0.015909     -0.050353     -0.044423
Au     16.71344     20.47144     15.20690        -0.036362     -0.028020      0.038218
Au     16.41613     18.91497     17.57237         0.033749      0.006177      0.058885
Au     18.47753     17.06147     16.99531        -0.062265     -0.019493     -0.003371
Au     14.21179     16.78454     15.80585        -0.049032      0.088416     -0.065808
