38
# total energy = -98.64052299 eVAu     12.85416     14.40987     12.03378        -0.165954     -0.426454     -0.930761
Au     12.76089     11.86230     12.78234        -0.479201     -0.559494     -1.276389
Au     11.42730     13.80432     14.34012        -1.133040      0.148225      0.127485
Au     17.41857     11.79630     13.30254         0.298089     -1.085785     -0.269841
Au     14.88975     10.95093     14.17920         0.547946     -1.155854     -0.379083
Au     19.93422     15.48675     12.83208         1.460958     -0.134078     -0.593433
Au     16.50648     14.85186     14.09232        -1.006862      0.534709      0.470632
Au     15.40497     15.52263     11.37504         0.404156     -0.245075     -1.072578
Au     17.84283     14.05482     11.88165        -0.013502     -0.101271     -1.127934
Au     15.23793     12.97875     12.31350        -0.145745     -0.131546     -1.172171
Au     12.99711     16.94262     11.15556        -0.186320      0.152130     -1.355519
Au     11.37171     16.36458     13.31475        -1.260610      0.067092      0.271168
Au     14.05956     16.26684     13.69266         0.742438     -0.486214      0.821291
Au     12.78612     18.70923     13.16181        -0.756864      1.027299      0.155354
Au     17.48421     19.57020     12.90762         0.179262      0.811718     -0.750638
Au     14.99760     20.10021     13.96122        -0.507698      1.251346     -0.311911
Au     17.65254     16.82247     12.28971        -0.397989      0.106512     -1.352484
Au     15.24657     18.25038     11.96232         0.416611      0.278330     -1.141038
Au     19.76820     18.17886     13.27683         1.408699      0.620060     -0.467303
Au     14.09145     13.53192     14.85726         0.525835      0.931155     -0.076327
Au     12.50283     13.41942     17.07153        -0.905871      0.067945      0.705655
Au     12.20490     11.37312     15.29589        -1.366087     -1.120525      0.380561
Au     13.39101     15.64191     18.44304        -1.103644      0.010153      0.669177
Au     17.58039     14.74407     16.89981         0.992652     -0.455121      0.423526
Au     15.15618     13.58601     17.88000         0.461893     -0.650179      0.663465
Au     14.34519     11.29530     16.80573         0.450240     -0.892781      1.083021
Au     16.58814     12.49551     15.74247         0.666472     -0.421051      0.889234
Au     18.89661     13.67766     14.55783         0.737045     -0.371057      0.776317
Au     12.33513     15.88242     15.88005        -0.909031      0.536526      0.433959
Au     13.71594     18.32010     15.67989        -1.258650      0.462221      0.559790
Au     17.32782     17.50551     17.24790         1.097568      0.035535      0.588239
Au     18.46596     19.21881     15.40086         0.711271      0.621097      0.602630
Au     15.97947     19.74882     16.45473        -0.047660      1.086806      0.859308
Au     14.75610     18.00423     18.16482        -0.562893      0.958129      0.646100
Au     18.74442     16.43166     15.06276         0.625706     -0.258571      1.241145
Au     16.29639     17.73474     14.58132        -0.253826     -0.812723     -0.014123
Au     16.08927     15.83598     19.00851         0.785820     -0.197088      1.113960
Au     15.10692     15.89199     16.35255        -0.051212     -0.202121     -1.190482
