38
# total energy = -101.49276177 eVAu     12.24221     14.91342     11.04003        -0.079450      0.019271      0.041913
Au     12.43062     13.07537     13.31697        -0.040010     -0.107967     -0.017103
Au     11.40249     15.65262     13.62026        -0.038659     -0.065395     -0.049138
Au     14.21145     13.02482     10.99527         0.131515     -0.006279      0.096177
Au     15.17839     12.06876     13.46068        -0.041258      0.146099      0.031739
Au     16.97480     15.72760     13.89238         0.092420     -0.035473      0.055835
Au     14.97719     15.83899     10.52369         0.032773      0.043478      0.103682
Au     14.40172     15.07427     13.14122        -0.103641     -0.072022     -0.079521
Au     19.26352     14.38456     12.55312        -0.002435     -0.006113      0.064684
Au     17.67323     16.46173     11.27196        -0.055694      0.037612      0.017695
Au     16.74012     13.75170     11.73961        -0.184226     -0.012720     -0.025313
Au     12.89079     17.44738     11.90267         0.036376      0.009036      0.052574
Au     11.19944     18.41556     14.02388         0.083965     -0.037785      0.026114
Au     13.67412     19.48398     13.64866        -0.047919     -0.019937     -0.051279
Au     18.14400     18.88823     12.61991         0.158884     -0.081641     -0.088954
Au     20.10261     16.96114     12.87550        -0.078714      0.141332      0.051154
Au     16.07845     20.61255     13.15484        -0.011616      0.051055      0.135777
Au     15.50170     18.30143     11.70040         0.005470     -0.069139      0.035258
Au     13.92771     13.22394     17.74748        -0.020735     -0.023661      0.053223
Au     11.93509     14.13013     15.94866         0.067106      0.064720     -0.073453
Au     13.23109     11.66874     15.50400         0.037176      0.015086      0.030568
Au     13.11297     15.99269     17.82972         0.029098     -0.017392     -0.088014
Au     17.74158     12.92095     14.34993        -0.014792      0.065280     -0.005034
Au     19.36892     15.29001     15.24196        -0.062535      0.018072      0.049459
Au     15.22886     14.64179     15.74989        -0.057736      0.016248      0.024312
Au     15.71592     15.30106     18.52427         0.027502      0.028310     -0.169799
Au     15.92610     11.88368     16.18035        -0.071435      0.021152     -0.009019
Au     17.67321     13.86418     17.03759         0.017922      0.177256     -0.040388
Au     13.71902     16.85174     15.10036         0.068474      0.032704     -0.071556
Au     11.01875     16.72909     16.20924         0.066293     -0.103947      0.039036
Au     12.69497     18.99299     16.47504        -0.109441     -0.042132      0.022647
Au     17.40589     19.41342     17.09955        -0.032392      0.039220     -0.093231
Au     18.24632     20.77853     14.77629         0.184729      0.095267      0.005936
Au     15.04588     20.36482     15.94728         0.046593      0.020544      0.011840
Au     15.07889     17.96034     17.67671         0.074870     -0.063535     -0.111362
Au     17.64738     16.66773     17.07117        -0.120991     -0.193699      0.022891
Au     16.23426     18.14882     14.75071        -0.110265     -0.040149      0.030322
Au     19.10697     18.11436     15.19812         0.122779     -0.042757     -0.029674
