38
# total energy = -101.25797253 eVAu     13.98042     14.09377     11.59627         0.058053     -0.144711      0.101458
Au     12.90577     11.99236     13.03854         0.021378      0.098366     -0.006736
Au     11.74513     14.66727     13.45115        -0.043719     -0.151746      0.001450
Au     15.63555     12.06862     12.84854        -0.038086      0.066306     -0.053713
Au     19.25656     15.01057     12.92164        -0.047359      0.115600     -0.068696
Au     16.85508     14.24660     14.60565        -0.048488      0.074208     -0.040186
Au     18.38967     12.36701     12.96048         0.039611     -0.000955     -0.209995
Au     16.87425     14.25734     11.49069        -0.014288     -0.025353      0.069215
Au     12.89210     16.70296     11.92247        -0.086822      0.064426      0.071120
Au     12.88362     19.24058     13.14407         0.034090     -0.103545      0.156945
Au     17.64597     19.38990     13.13771         0.117169      0.010628     -0.051879
Au     15.20302     16.25764     10.39913         0.094488     -0.082833     -0.136772
Au     15.26518     16.18762     13.32343        -0.071578      0.025541      0.031292
Au     17.63788     16.97310     11.54564         0.029736     -0.021417      0.048723
Au     15.23263     18.64427     11.75868         0.110246      0.039373      0.089554
Au     19.92288     17.67754     12.99603        -0.065939     -0.078684      0.027763
Au     14.07855     14.82727     18.53740         0.139413     -0.190197     -0.046488
Au     14.08164     14.01907     14.80428         0.060403     -0.004573     -0.009452
Au     13.13276     12.40678     17.54730         0.075641      0.084235      0.097733
Au     11.50721     12.48218     15.30457        -0.070633     -0.026207     -0.059485
Au     14.44020     11.27291     15.35251        -0.011895     -0.026549     -0.023807
Au     12.00997     14.90479     16.58301        -0.044156     -0.063651     -0.032894
Au     17.18440     11.53823     15.28665        -0.031419     -0.076713      0.156096
Au     18.02955     15.08259     17.24458        -0.031089     -0.042677     -0.005065
Au     15.87226     13.18223     17.13904        -0.002164      0.037703      0.050882
Au     19.38253     13.48003     15.36325         0.097474     -0.075868      0.110513
Au     12.55599     16.95385     14.79900        -0.183314      0.191364     -0.038708
Au     13.16820     17.21959     17.61618         0.035428      0.219612     -0.135943
Au     12.99815     19.46860     15.98758         0.074014     -0.108681     -0.066791
Au     18.19989     17.92742     17.34731         0.034484     -0.179728     -0.010118
Au     17.39623     20.22180     15.96768        -0.088210      0.126903      0.033913
Au     20.01997     16.15314     15.52789        -0.030395      0.154715     -0.041626
Au     15.45250     18.86998     17.39283        -0.066232     -0.021680     -0.118313
Au     16.23918     16.54941     18.76504        -0.062378     -0.082285      0.024431
Au     19.77338     19.04641     15.31487         0.113752     -0.001339     -0.073076
Au     17.53546     17.07663     14.65860         0.002302     -0.020099      0.033990
Au     15.29998     18.92405     14.55682        -0.054812      0.173685      0.047996
Au     15.35342     16.09993     16.16890        -0.044705      0.046828      0.076669
