38
# total energy = -101.76933640 eVAu     12.82246     14.37211     11.86495        -0.068406     -0.043512      0.020863
Au     12.69874     11.80725     12.75267         0.010737      0.001204      0.058399
Au     11.39036     13.78889     14.42272        -0.025821      0.089971     -0.043528
Au     17.36557     11.83864     13.32911         0.081856      0.080450     -0.021574
Au     14.94089     10.90894     14.15281        -0.102093     -0.063003      0.031290
Au     20.01732     15.53616     12.80598        -0.027451     -0.082413     -0.001203
Au     16.47945     14.93118     14.11412         0.088402     -0.051071     -0.041333
Au     15.42214     15.51161     11.08960         0.072640      0.014065     -0.007376
Au     17.78906     14.11806     11.81773         0.039006      0.031631     -0.102279
Au     15.19369     12.89737     11.99262        -0.040791     -0.030455      0.009863
Au     13.02368     16.95899     11.04661        -0.081351      0.100558     -0.001775
Au     11.28086     16.33237     13.33322        -0.037771     -0.033267     -0.010395
Au     14.02863     16.22245     13.74720        -0.003396      0.031656     -0.008840
Au     12.71724     18.72586     13.19899        -0.006292     -0.043394     -0.045074
Au     17.53466     19.58296     12.84609         0.010039      0.048215      0.002611
Au     14.95916     20.12422     13.93817        -0.025244     -0.041662     -0.027046
Au     17.74163     16.91139     11.88016         0.023750     -0.033870     -0.062517
Au     15.30823     18.29103     11.78120        -0.059904      0.017370      0.030642
Au     19.91510     18.23523     13.22698         0.039063      0.071724     -0.005537
Au     14.17259     13.55602     14.82806         0.047095     -0.056629     -0.025804
Au     12.41952     13.42004     17.03462         0.018961      0.079415      0.071316
Au     11.96926     11.20118     15.36462        -0.008243     -0.056773     -0.004354
Au     13.30910     15.60666     18.48386        -0.024400     -0.040319      0.023092
Au     17.78314     14.66631     17.08581         0.058746      0.019587     -0.038956
Au     15.24262     13.50569     18.01049        -0.068732     -0.041327      0.020698
Au     14.31445     11.22860     16.85513        -0.030174      0.015578     -0.048461
Au     16.76267     12.33565     15.97719        -0.039338     -0.030758      0.013990
Au     18.90592     13.71815     14.65367         0.100996      0.009146      0.050805
Au     12.01134     16.08417     16.03619         0.043560     -0.055565     -0.022916
Au     13.34666     18.55402     15.85858         0.023622      0.070260      0.000464
Au     17.49780     17.50704     17.34315        -0.062082      0.017001      0.022910
Au     18.54596     19.22087     15.41323         0.007757      0.046512      0.004015
Au     15.96896     19.76326     16.50247        -0.004328     -0.051068      0.024677
Au     14.68264     18.02257     18.18918         0.021415     -0.053940      0.025023
Au     19.09306     16.42711     15.31194         0.055291     -0.043798      0.020864
Au     16.33322     17.66433     14.55689         0.016933     -0.009740     -0.008161
Au     16.18391     15.82754     19.07159        -0.049851      0.090628      0.078377
Au     15.04314     15.85918     16.32440         0.005796      0.027595      0.017228
