38
# total energy = -101.72736151 eVAu     12.81669     14.36059     11.87446        -0.032894      0.145302     -0.048507
Au     12.70313     11.80054     12.73520        -0.025754     -0.066144      0.081541
Au     11.36944     13.79203     14.39901         0.031326     -0.012799      0.072647
Au     17.39470     11.79361     13.31137        -0.036803      0.134760      0.033221
Au     14.94277     10.91008     14.15250        -0.059837     -0.050952      0.015636
Au     20.03840     15.52554     12.79650        -0.027329      0.008989      0.010373
Au     16.46421     14.92153     14.11888         0.052303      0.000896     -0.021268
Au     15.42728     15.50358     11.09632        -0.011354      0.033800     -0.004646
Au     17.79346     14.11015     11.83718         0.028810     -0.062941     -0.130774
Au     15.19090     12.89794     12.01568         0.085116     -0.045850      0.008563
Au     13.02138     16.97447     11.05748        -0.073432     -0.073188     -0.064930
Au     11.29705     16.33352     13.33978        -0.097886      0.026877     -0.046207
Au     14.03899     16.23270     13.73732        -0.018439     -0.022962      0.023282
Au     12.72192     18.73757     13.18484        -0.049936     -0.009816      0.022647
Au     17.53645     19.59146     12.85529        -0.056845     -0.008827     -0.043938
Au     14.94493     20.15178     13.93167         0.063495     -0.057842      0.009666
Au     17.72817     16.88534     11.92364         0.038726      0.109411     -0.052329
Au     15.30370     18.29849     11.78244         0.045655      0.027063      0.044603
Au     19.91736     18.24162     13.22706         0.005513     -0.022515     -0.005779
Au     14.14841     13.55566     14.83788         0.038781     -0.013302     -0.018342
Au     12.42036     13.41599     17.06614        -0.027551      0.005289     -0.076077
Au     12.00048     11.21980     15.35465        -0.041154     -0.035902      0.012858
Au     13.31661     15.61074     18.46823        -0.038188      0.007196      0.106827
Au     17.78167     14.66048     17.07594        -0.001555      0.031694      0.017615
Au     15.23119     13.49661     18.00493         0.019606      0.122295      0.090797
Au     14.32849     11.21828     16.86273        -0.079029     -0.045253     -0.055504
Au     16.74511     12.34154     15.96315         0.053097     -0.034729     -0.074153
Au     18.89531     13.71578     14.63523         0.103334     -0.090509      0.056788
Au     12.01669     16.05264     16.02957         0.059583      0.038903     -0.018377
Au     13.38933     18.54070     15.83979        -0.054740      0.001888      0.021854
Au     17.49447     17.51401     17.34703         0.006441      0.041155     -0.053795
Au     18.54161     19.23133     15.40771        -0.011782     -0.023868      0.066370
Au     15.96533     19.78675     16.52308         0.035775     -0.046522     -0.062715
Au     14.69676     18.03096     18.19868        -0.053498     -0.009411      0.016360
Au     19.05125     16.41125     15.28420         0.075195      0.096889      0.037680
Au     16.30635     17.68539     14.57065         0.103000      0.011141     -0.040657
Au     16.17632     15.84504     19.06887        -0.017308     -0.092411      0.078727
Au     15.05819     15.86762     16.32695        -0.030440     -0.017804     -0.010058
