38
# total energy = -101.82404553 eVAu     12.76308     14.35793     11.85171         0.035464      0.005771      0.011456
Au     12.70571     11.80786     12.85521         0.000142      0.008293      0.026775
Au     11.40153     13.81048     14.44029        -0.004480      0.007625     -0.020601
Au     17.38642     12.07264     13.35378         0.034752     -0.014850     -0.016733
Au     15.01134     10.88346     14.12098         0.033786      0.030129     -0.009152
Au     19.91959     15.49371     12.83808        -0.052755     -0.014380      0.018310
Au     16.57937     14.84636     14.06337         0.023376      0.019931     -0.007969
Au     15.38404     15.53981     11.04342        -0.031171      0.028437     -0.016754
Au     17.75833     14.18537     11.61598        -0.021300      0.002151      0.004408
Au     15.14929     12.91138     11.95989         0.010756      0.000853      0.004012
Au     12.97023     16.98192     11.04996         0.002525     -0.037672      0.006050
Au     11.27932     16.31494     13.33022         0.008006      0.004802     -0.006720
Au     14.09107     16.16625     13.70097         0.002876      0.010255      0.016890
Au     12.69574     18.68653     13.23141         0.009631     -0.018600     -0.019777
Au     17.51905     19.57386     12.84234         0.023647      0.003620      0.026707
Au     14.95799     20.05620     13.93789         0.013029      0.031875      0.010116
Au     17.75766     16.95715     11.75719        -0.025539     -0.018461      0.000542
Au     15.27899     18.28927     11.77873        -0.018711     -0.023860     -0.028355
Au     19.89690     18.21966     13.23180        -0.011939     -0.013602      0.002841
Au     14.21903     13.52231     14.80649         0.006782      0.006107     -0.001934
Au     12.41815     13.44723     17.02118         0.011145      0.001756      0.019647
Au     11.82039     11.19568     15.42260         0.002758     -0.007562     -0.001172
Au     13.30893     15.58896     18.48372         0.012257      0.002254     -0.001504
Au     17.78997     14.67989     17.14972        -0.009901      0.018046      0.039644
Au     15.20854     13.48401     18.05586         0.015443      0.011257     -0.030822
Au     14.25195     11.25560     16.77753        -0.018538      0.015439     -0.014890
Au     16.75464     12.33743     16.03334         0.006352      0.002502     -0.011200
Au     19.02539     13.73261     14.83095        -0.018073     -0.003320      0.012109
Au     12.13487     16.12373     15.99348        -0.023955     -0.013958      0.008016
Au     13.30866     18.66978     15.88980        -0.001336      0.017239      0.004870
Au     17.47873     17.50255     17.36368         0.003347     -0.030498      0.025214
Au     18.53530     19.21052     15.42352        -0.000913      0.012286     -0.034827
Au     15.96170     19.69726     16.48787         0.003963      0.034189     -0.005744
Au     14.64063     17.99089     18.17230         0.018456     -0.020594      0.001238
Au     19.19227     16.44406     15.39791        -0.020349     -0.016642      0.012877
Au     16.39984     17.57783     14.51809        -0.004259     -0.016791     -0.001150
Au     16.14526     15.84669     19.10921        -0.005749     -0.036510     -0.012711
Au     15.11490     15.80129     16.30150        -0.009529      0.012487     -0.009706
