38
# total energy = -101.81868003 eVAu     12.11965     14.85556     11.05539         0.021849     -0.002067     -0.002637
Au     12.30926     12.88593     13.28200         0.009799      0.032858      0.014716
Au     11.31827     15.52938     13.60879        -0.033298      0.038841      0.051277
Au     14.18757     13.04438     11.02873        -0.016982     -0.026037     -0.024201
Au     15.15100     12.14518     13.51516         0.054648     -0.069932     -0.029779
Au     16.85594     15.58375     14.01520        -0.073753      0.029991      0.104055
Au     14.98234     15.91265     10.62058         0.037059     -0.001677     -0.069049
Au     14.26188     14.94210     13.12472        -0.013470      0.037659      0.101673
Au     19.20675     14.50748     12.63736        -0.032750     -0.042924     -0.083494
Au     17.63648     16.53146     11.41309         0.042701     -0.029022      0.033782
Au     16.71082     13.80354     11.71673         0.021205      0.008231      0.033699
Au     12.95168     17.38559     11.93280         0.037479      0.034240     -0.042649
Au     11.32394     18.32527     14.02160        -0.078285      0.001679      0.053625
Au     13.70935     19.57949     13.56338         0.011648     -0.009696      0.021536
Au     18.24220     18.98073     12.58732        -0.021863     -0.043113      0.025619
Au     20.19157     17.06644     12.86233         0.036987      0.003989     -0.008398
Au     16.24313     20.64827     13.50379         0.034019      0.007974     -0.013903
Au     15.55380     18.39728     11.77671         0.015558     -0.008251      0.074059
Au     13.84126     13.15509     17.86689         0.029176     -0.029160     -0.004513
Au     11.95339     14.06225     15.91215        -0.013070     -0.009304     -0.038519
Au     13.22247     11.63519     15.53952         0.020154      0.036592     -0.005015
Au     13.15537     15.99882     17.73485        -0.034527      0.076732     -0.002547
Au     17.75209     12.88073     14.32810        -0.066601     -0.017279      0.045651
Au     19.38254     15.38079     15.26045        -0.006197      0.046977     -0.028499
Au     14.95893     14.58190     15.77577        -0.009132      0.024564     -0.100350
Au     15.73045     15.27177     18.43277         0.027822      0.059166     -0.001211
Au     15.89953     11.93739     16.23637         0.031645      0.067785     -0.033481
Au     17.66929     13.97246     16.93129        -0.025574     -0.019550     -0.017162
Au     13.70052     16.90605     14.93862         0.065243     -0.045069      0.018938
Au     10.96142     16.59921     16.20519         0.002306     -0.021940     -0.106585
Au     12.61016     18.85900     16.55113        -0.027270     -0.076441      0.083150
Au     17.41780     19.52197     16.82298        -0.019821      0.009184     -0.035185
Au     18.76719     20.86118     14.64300        -0.036511      0.004813     -0.023157
Au     14.88581     20.33644     15.99938         0.013868      0.001169     -0.003350
Au     15.14422     17.93439     17.53466         0.001661      0.041439      0.061831
Au     17.65430     16.74249     17.06068        -0.018649      0.010887     -0.048760
Au     16.25620     18.11237     14.67086         0.005059     -0.130684      0.016555
Au     19.22807     18.14916     15.18901         0.007868      0.007379     -0.017722
