38
# total energy = -101.66208415 eVAu     12.79930     14.38292     11.87534         0.110196     -0.200029      0.037276
Au     12.70264     11.77278     12.73153         0.008072      0.190468     -0.083067
Au     11.34711     13.79320     14.38375         0.079407     -0.056910      0.074623
Au     17.42762     11.76375     13.29424        -0.152883      0.036154      0.065563
Au     14.92936     10.89798     14.15627         0.100914     -0.016091     -0.043616
Au     20.06205     15.51234     12.78533        -0.111030      0.052161      0.050866
Au     16.45590     14.90757     14.12013         0.095946      0.027670     -0.034066
Au     15.43178     15.50089     11.10494        -0.047754      0.018084      0.046901
Au     17.80774     14.08149     11.83046        -0.000206      0.101400     -0.065882
Au     15.20980     12.88639     12.05195        -0.098278      0.072996     -0.049422
Au     12.99815     16.97748     11.05592         0.112211      0.016977     -0.060682
Au     11.29442     16.34248     13.33694        -0.088493      0.041159      0.003647
Au     14.04927     16.24159     13.72907        -0.039999     -0.032179      0.024953
Au     12.71530     18.75214     13.17012         0.000566     -0.010042      0.061051
Au     17.52373     19.60159     12.85695         0.107229      0.009609     -0.011647
Au     14.94114     20.17672     13.92471         0.021275     -0.039190      0.045617
Au     17.71882     16.87658     11.97350         0.067115      0.022884     -0.071504
Au     15.30937     18.31679     11.79632        -0.132457     -0.121454     -0.072593
Au     19.92216     18.24494     13.22563        -0.084518     -0.036433      0.027870
Au     14.12330     13.55153     14.84737         0.066991      0.031673     -0.022920
Au     12.41413     13.41145     17.09196         0.002518     -0.029901     -0.118570
Au     12.03530     11.23750     15.34346        -0.170163     -0.044143      0.061018
Au     13.31732     15.61868     18.47411        -0.063871      0.030737      0.066354
Au     17.77909     14.66048     17.06618        -0.066275      0.023944      0.004000
Au     15.21966     13.51629     18.02128         0.038516     -0.169701     -0.146625
Au     14.32781     11.19086     16.85891         0.080795      0.163063      0.099331
Au     16.73362     12.34081     15.92243        -0.031322      0.050310      0.117646
Au     18.90763     13.68783     14.62344         0.053441      0.081830      0.071351
Au     12.04068     16.01676     16.01485         0.044665      0.130334      0.002485
Au     13.43734     18.52162     15.81805        -0.121673     -0.032877      0.044613
Au     17.49131     17.53540     17.33820        -0.061453     -0.145110      0.108589
Au     18.53203     19.24026     15.41753         0.087707      0.017523     -0.061198
Au     15.96966     19.80874     16.53648        -0.020022     -0.024833     -0.055256
Au     14.70307     18.04076     18.21708        -0.042138      0.006195     -0.047511
Au     19.01003     16.41409     15.25354         0.101214      0.009932      0.009001
Au     16.29463     17.71939     14.57990         0.077358     -0.157029     -0.051510
Au     16.16046     15.84582     19.08613         0.124881      0.009106     -0.027650
Au     15.07211     15.87523     16.32798        -0.048483     -0.028288      0.000963
