38
# total energy = -101.83184701 eVAu     12.76954     14.34017     11.85439         0.009895     -0.008952      0.025538
Au     12.71786     11.80173     12.90244         0.015750     -0.003630     -0.002347
Au     11.39389     13.81293     14.43843         0.016218      0.011642      0.017688
Au     17.44474     12.12370     13.33808         0.029587     -0.010357     -0.013420
Au     15.07844     10.91999     14.09977         0.015962     -0.017109     -0.006174
Au     19.84239     15.46045     12.86376        -0.047782     -0.014530      0.016451
Au     16.61021     14.82963     14.04826        -0.019089      0.052042      0.015549
Au     15.35057     15.55438     10.99221        -0.005004     -0.016528      0.017885
Au     17.71714     14.20545     11.54544        -0.016716     -0.024352     -0.026939
Au     15.15691     12.91551     11.94783         0.022226     -0.007385      0.030476
Au     12.94703     16.96293     11.05396        -0.004302      0.040748     -0.025756
Au     11.29224     16.31735     13.33173        -0.006424     -0.015559      0.011647
Au     14.11267     16.14780     13.68607         0.019982      0.029165      0.020528
Au     12.71928     18.68012     13.22983         0.002849     -0.001529      0.010008
Au     17.51562     19.57146     12.84638        -0.008287     -0.002948     -0.028398
Au     14.97416     20.06157     13.93842        -0.023929     -0.000127     -0.004878
Au     17.72555     16.96474     11.73510        -0.001134     -0.007573     -0.004839
Au     15.25860     18.30003     11.76237        -0.009827     -0.008131      0.003297
Au     19.87007     18.18395     13.23731         0.013476      0.001280     -0.007442
Au     14.21829     13.52809     14.80800         0.041046      0.021274     -0.012816
Au     12.41338     13.44763     17.02908         0.000972      0.019898     -0.022084
Au     11.76098     11.19797     15.44639        -0.014517      0.006775      0.006598
Au     13.31861     15.59238     18.47416        -0.015080     -0.012799     -0.006521
Au     17.80124     14.67805     17.21134        -0.019143     -0.008252     -0.011953
Au     15.20871     13.46813     18.04570        -0.007498     -0.001094     -0.028078
Au     14.22789     11.26291     16.73473         0.014855     -0.005598     -0.007955
Au     16.76926     12.33874     16.03792        -0.009423      0.001625     -0.038030
Au     19.04388     13.73124     14.91293         0.005419     -0.030142      0.023953
Au     12.16159     16.13013     15.98412        -0.007297      0.018586      0.005738
Au     13.29471     18.71151     15.90147         0.032387     -0.033849     -0.016787
Au     17.47663     17.50763     17.39084        -0.011005     -0.008556      0.003421
Au     18.52931     19.21035     15.42107         0.009931     -0.012499      0.024972
Au     15.97427     19.70471     16.47906        -0.015052     -0.004643      0.017922
Au     14.65901     17.98610     18.15574        -0.005454      0.001980     -0.009258
Au     19.18398     16.44422     15.43653         0.002391     -0.008431      0.000729
Au     16.41165     17.55995     14.51051        -0.028609     -0.002819      0.013246
Au     16.12516     15.82736     19.11740         0.017163      0.029323      0.030044
Au     15.13937     15.78212     16.29325         0.005462      0.033056     -0.022017
