19
# total energy = -47.15899337 eVAu     15.52397     15.25976     15.31562        -0.104694      0.037903      0.133577
Au     15.42453     13.00623     13.31668        -0.136206     -0.018316     -0.410727
Au     16.97539     17.32241     13.98701         0.025939      0.026866     -0.054314
Au     17.78999     14.48276     13.70856         0.074323      0.041766     -0.052258
Au     19.47734     16.37040     14.82065         0.206493     -0.079919     -0.101777
Au     13.25041     14.88904     13.66881        -0.070680     -0.040877      0.034148
Au     15.60492     15.54533     12.25207         0.116338     -0.223642     -0.159088
Au     14.30971     17.56871     13.47901        -0.284225      0.217151      0.180847
Au     12.53470     17.04722     15.48846         0.074660      0.037330     -0.046826
Au     17.90621     17.82007     16.52485        -0.160305      0.125214      0.242042
Au     18.05277     14.92119     16.66833        -0.071183     -0.133733      0.036186
Au     16.35621     16.42714     18.32123        -0.037783      0.126733      0.010589
Au     13.73242     15.86360     17.71645         0.102330      0.150783     -0.087998
Au     11.88913     14.42690     16.05893         0.128546      0.043795     -0.111416
Au     13.13973     13.21044     18.23271         0.018405     -0.100526      0.137432
Au     15.09853     17.93943     16.22742         0.023631     -0.101544     -0.021815
Au     15.79822     13.76723     17.87161         0.002485     -0.033790     -0.030520
Au     14.08802     12.74275     15.67076        -0.158286     -0.002789      0.086755
Au     16.86865     12.59270     15.59237         0.250212     -0.072405      0.215162
