19
# total energy = -47.26567297 eVAu     15.48676     15.21859     15.32624        -0.062959      0.017356      0.009831
Au     15.40581     12.96270     13.23869         0.027309      0.043968     -0.007356
Au     16.94038     17.29443     13.99528        -0.007744     -0.035568      0.040253
Au     17.76120     14.47868     13.69220        -0.028433      0.019308      0.002916
Au     19.45755     16.31705     14.86835        -0.029053      0.025438      0.008173
Au     13.25781     14.90524     13.61609        -0.021165      0.013206      0.013136
Au     15.59198     15.52983     12.22355         0.011915      0.005722      0.008265
Au     14.25648     17.61575     13.46925         0.010696     -0.038416      0.021792
Au     12.51446     17.11147     15.48157         0.040784      0.021615     -0.002926
Au     17.85862     17.83891     16.56459         0.034474     -0.036689     -0.004617
Au     18.02141     14.90170     16.69685        -0.032288      0.039614      0.010322
Au     16.35765     16.46433     18.39645        -0.022391     -0.009057     -0.052627
Au     13.74774     15.92590     17.72620         0.062537      0.000878     -0.028419
Au     12.04069     14.45945     16.03117         0.075796      0.005131      0.003432
Au     13.19767     13.21394     18.28267        -0.029066     -0.012811     -0.012355
Au     15.10067     17.91557     16.21751        -0.008693     -0.015296     -0.054685
Au     15.80783     13.78991     17.86018        -0.032838     -0.033321     -0.020408
Au     14.11495     12.69660     15.65264         0.009284     -0.034054      0.085464
Au     16.90119     12.56323     15.58204         0.001834      0.022976     -0.020191
