19
# total energy = -43.61323502 eVAu     13.90038     12.31921     13.83821         0.003679     -0.029897      0.041361
Au     12.16893     19.47236     13.83783        -0.029087      0.012289      0.039474
Au     19.22892     17.39496     13.83803         0.024284      0.020266      0.041555
Au     11.35623     16.86698     13.31532        -0.127776      0.029562      0.031522
Au     17.37959     19.40148     13.31568         0.089492      0.095101      0.032220
Au     16.56268     12.91810     13.31662         0.037540     -0.125099      0.031838
Au     17.49993     15.33570     14.02093        -0.029652      0.012877     -0.039203
Au     12.98143     14.84646     14.01972         0.023794      0.018518     -0.036829
Au     14.81721     19.00416     14.01937         0.002528     -0.030109     -0.036490
Au     16.29834     20.47223     15.85339        -0.003679      0.029897     -0.041361
Au     18.02979     13.31908     15.85377         0.029087     -0.012289     -0.039474
Au     10.96980     15.39648     15.85357        -0.024284     -0.020266     -0.041555
Au     15.09936     16.39572     14.84580         0.000000      0.000000      0.000000
Au     18.84249     15.92446     16.37628         0.127776     -0.029562     -0.031522
Au     12.81913     13.38993     16.37592        -0.089492     -0.095101     -0.032220
Au     13.63604     19.87331     16.37498        -0.037540      0.125099     -0.031838
Au     12.69882     17.45574     15.67067         0.029652     -0.012877      0.039203
Au     17.21729     17.94498     15.67188        -0.023794     -0.018518      0.036829
Au     15.38151     13.78725     15.67223        -0.002528      0.030109      0.036490
