19
# total energy = -35.29729619 eVAu     13.36871     12.36890     13.73527         0.351994     -0.077810      0.315268
Au     12.47735     19.90790     13.73519        -0.242500     -0.266015      0.315637
Au     19.45200     16.91036     13.73518        -0.109293      0.343741      0.315515
Au     11.50136     16.25155     12.32187         0.006737      0.214720      0.435918
Au     16.77356     19.58376     12.32184         0.182310     -0.113603      0.435738
Au     17.02321     13.35183     12.32189        -0.189455     -0.100559      0.435699
Au     17.28701     15.50973     13.75849         0.514668     -0.565163      0.376966
Au     13.23829     14.94417     13.75846        -0.747042     -0.163420      0.376146
Au     14.77283     18.73321     13.75847         0.232072      0.728564      0.376547
Au     16.83001     20.42254     15.95633        -0.351994      0.077810     -0.315268
Au     17.72137     12.88354     15.95641         0.242500      0.266015     -0.315637
Au     10.74672     15.88108     15.95642         0.109293     -0.343741     -0.315515
Au     15.09936     16.39572     14.84580        -0.000000      0.000000     -0.000000
Au     18.69736     16.53989     17.36973        -0.006737     -0.214720     -0.435918
Au     13.42516     13.20765     17.36976        -0.182310      0.113603     -0.435738
Au     13.17551     19.43958     17.36971         0.189455      0.100559     -0.435699
Au     12.91174     17.28171     15.93311        -0.514668      0.565163     -0.376966
Au     16.96043     17.84727     15.93314         0.747042      0.163420     -0.376146
Au     15.42589     14.05820     15.93313        -0.232072     -0.728564     -0.376547
