19
# total energy = -47.38227120 eVAu     14.62503     13.46960     12.78844        -0.015344      0.042936      0.054031
Au     12.27553     14.83037     13.45065        -0.008514     -0.016528     -0.023625
Au     16.30454     17.92789     12.05441         0.013771      0.020069     -0.025787
Au     16.79314     15.24305     12.87494        -0.022885      0.094434      0.019421
Au     18.55905     17.32915     13.52598         0.033975     -0.024870      0.046167
Au     11.74481     17.25093     12.18551         0.057678     -0.004674      0.022794
Au     14.27125     16.06987     11.88227        -0.027670      0.020033     -0.050211
Au     13.95125     18.51891     13.36984        -0.029740      0.028871     -0.043900
Au     11.95157     17.31138     14.95899        -0.014666      0.028539      0.000435
Au     14.70708     16.02799     14.83609        -0.010572      0.004703     -0.011133
Au     16.36860     18.48775     14.84893        -0.004848     -0.061044     -0.080613
Au     17.48210     15.90632     15.63124        -0.041810     -0.004725      0.002332
Au     15.84700     17.33160     17.35397        -0.017667      0.037408      0.075290
Au     13.20964     16.47884     17.33228        -0.030764      0.025979      0.052601
Au     11.38657     14.82732     16.09480         0.108576      0.000025      0.023743
Au     13.90813     18.93918     16.11354         0.003663     -0.071649     -0.014911
Au     15.30318     14.59745     17.31680         0.025682      0.030439     -0.042678
Au     13.61861     13.35669     15.43429        -0.019660     -0.065080     -0.003613
Au     16.35384     13.45805     14.99914         0.000794     -0.084865     -0.000342
