19
# total energy = -46.73532202 eVAu     12.94072     15.91284     13.03822        -0.013237      0.000000     -0.013237
Au     15.00216     13.85140     13.03822        -0.000000     -0.013237     -0.013237
Au     17.06363     15.91284     13.03822         0.013237      0.000000     -0.013237
Au     15.00216     15.91284     11.21917        -0.000000      0.000000      0.054379
Au     15.00216     17.97431     13.03822        -0.000000      0.013237     -0.013237
Au     12.94072     15.91284     17.16113        -0.013237      0.000000      0.013237
Au     12.94072     13.85140     15.09969        -0.013237     -0.013237     -0.000000
Au     11.12164     15.91284     15.09969         0.054379      0.000000     -0.000000
Au     15.00216     13.85140     17.16113        -0.000000     -0.013237      0.013237
Au     17.06363     15.91284     17.16113         0.013237      0.000000      0.013237
Au     17.06363     13.85140     15.09969         0.013237     -0.013237     -0.000000
Au     18.88268     15.91284     15.09969        -0.054379      0.000000     -0.000000
Au     15.00216     12.03232     15.09969        -0.000000      0.054379     -0.000000
Au     15.00216     15.91284     18.98021        -0.000000      0.000000     -0.054379
Au     15.00216     15.91284     15.09969        -0.000000      0.000000     -0.000000
Au     12.94072     17.97431     15.09969        -0.013237      0.013237     -0.000000
Au     15.00216     17.97431     17.16113        -0.000000      0.013237      0.013237
Au     17.06363     17.97431     15.09969         0.013237      0.013237     -0.000000
Au     15.00216     19.79336     15.09969        -0.000000     -0.054379     -0.000000
