19
# total energy = -47.39310808 eVAu     14.90484     14.19562     11.80994        -0.002724      0.016002      0.009518
Au     12.22575     14.89658     11.88407        -0.024163     -0.004590     -0.017272
Au     15.98008     18.72987     10.82817         0.015685     -0.042239      0.072458
Au     16.66779     16.23633     11.94985        -0.017015      0.024021      0.023824
Au     18.50189     18.30611     12.06783        -0.102747     -0.036640      0.036205
Au     11.62157     17.56446     11.80560         0.014735     -0.006485      0.015115
Au     14.07422     16.71594     10.75059         0.039847      0.022250      0.002667
Au     13.73327     19.32684     12.34000         0.040215     -0.002860     -0.012585
Au     11.71702     18.78735     14.25173        -0.026153      0.014003     -0.007586
Au     14.19161     16.80774     13.60076         0.055938      0.019316     -0.021238
Au     16.30916     18.97693     13.61819        -0.007016     -0.035550     -0.014490
Au     17.92325     16.80432     14.40982        -0.054831      0.028602     -0.058470
Au     15.69564     17.38180     15.95753         0.033315      0.004078     -0.028658
Au     12.91981     17.59506     16.46997        -0.006285     -0.002858      0.030440
Au     11.73000     15.95276     14.47733         0.020159      0.005904     -0.007900
Au     14.18876     19.66728     15.14006         0.000408     -0.015363     -0.007093
Au     14.08548     15.12286     16.34848        -0.004658      0.009683     -0.018098
Au     13.42977     13.70424     14.10210        -0.006394     -0.026603      0.017105
Au     16.03709     14.77132     14.36953         0.031684      0.029327     -0.013942
