19
# total energy = -47.25783852 eVAu     14.56360     12.77463     13.62233        -0.003633      0.006907      0.008207
Au     12.23967     14.12587     14.31428         0.000650      0.000632     -0.009372
Au     16.58050     16.77940     12.48641         0.005205     -0.003111     -0.021694
Au     16.89831     14.25584     13.55713        -0.002283     -0.004671      0.001327
Au     18.66361     16.32573     14.25358         0.015904      0.012444     -0.002200
Au     12.04454     16.82482     13.64567        -0.000621      0.004681      0.008032
Au     14.20467     15.36727     12.64325         0.001297      0.001794      0.007895
Au     14.42914     18.17268     13.44276        -0.004402     -0.005796     -0.000649
Au     11.18018     16.17203     16.15974        -0.001900      0.004236      0.008097
Au     14.80477     14.98044     15.44745         0.003653      0.019720      0.009025
Au     16.35474     17.48109     15.33783        -0.012021      0.001811      0.006216
Au     17.51342     15.04815     16.42747        -0.002288     -0.006581      0.016841
Au     15.49086     16.50678     17.78696        -0.002622     -0.012777     -0.014683
Au     13.11189     15.09711     17.81147         0.014748     -0.004012     -0.008063
Au     11.07316     13.47094     16.77446        -0.015991     -0.003898     -0.004497
Au     13.58114     17.54342     16.02861         0.006002     -0.019901     -0.003222
Au     15.54446     13.71214     18.03475        -0.001538      0.015112      0.000349
Au     13.62154     12.49491     16.28645         0.014410     -0.004561      0.002507
Au     16.43363     12.49529     15.69309        -0.014570     -0.002028     -0.004114
