19
# total energy = -34.23514335 eVAu     13.35613     12.41694     13.72533         0.345458     -1.412788      0.246014
Au     12.52528     19.89478     13.72529        -1.395443      0.406258      0.245060
Au     19.41668     16.87540     13.72529         1.050286      1.006186      0.244822
Au     11.46607     16.27110     12.27838         0.487156     -0.135527      0.817189
Au     16.80809     19.60453     12.27839        -0.360740     -0.354041      0.816681
Au     17.02394     13.31153     12.27844        -0.126324      0.489038      0.816536
Au     17.31545     15.59337     13.77192        -0.605052     -1.762141     -0.011132
Au     13.29653     14.87771     13.77192        -1.222969      1.406063     -0.011649
Au     14.68621     18.71600     13.77191         1.827640      0.357528     -0.011778
Au     16.84259     20.37450     15.96627        -0.345458      1.412788     -0.246014
Au     17.67344     12.89666     15.96631         1.395443     -0.406258     -0.245060
Au     10.78204     15.91604     15.96631        -1.050286     -1.006186     -0.244822
Au     15.09936     16.39572     14.84580        -0.000000      0.000000      0.000000
Au     18.73265     16.52034     17.41322        -0.487156      0.135527     -0.817189
Au     13.39063     13.18688     17.41321         0.360740      0.354041     -0.816681
Au     13.17478     19.47988     17.41316         0.126324     -0.489038     -0.816536
Au     12.88330     17.19807     15.91968         0.605052      1.762141      0.011132
Au     16.90219     17.91373     15.91968         1.222969     -1.406063      0.011649
Au     15.51251     14.07541     15.91969        -1.827640     -0.357528      0.011778
