19
# total energy = -47.08807372 eVAu     15.51007     15.29068     15.35819         0.027099     -0.035447     -0.109385
Au     15.39503     13.02728     13.31598         0.114656     -0.038587     -0.187867
Au     16.99402     17.32729     13.95881         0.279579      0.040979      0.170994
Au     17.80673     14.50198     13.73260         0.062406      0.011615     -0.051912
Au     19.55723     16.40765     14.75497        -0.289421     -0.052850      0.132643
Au     13.25011     14.85483     13.71274        -0.069916      0.060758     -0.102860
Au     15.64435     15.54306     12.26415        -0.060795     -0.103580     -0.132290
Au     14.31874     17.56342     13.52647        -0.194931      0.097745     -0.111078
Au     12.55060     17.00057     15.49791        -0.070504      0.103320     -0.034234
Au     17.92014     17.83544     16.55367         0.016857     -0.083361     -0.154451
Au     18.05124     14.91735     16.63652         0.197605      0.132002      0.017832
Au     16.32332     16.41064     18.25335         0.258391      0.160986      0.231857
Au     13.77053     15.82516     17.65462        -0.343366     -0.108023      0.135532
Au     11.79591     14.41449     16.07040         0.208434     -0.056685      0.067957
Au     13.05979     13.16517     18.27253         0.224664      0.182801     -0.265829
Au     15.13135     17.95019     16.19589        -0.048603      0.120101      0.061847
Au     15.77476     13.74400     17.86870        -0.135131     -0.115739      0.136916
Au     14.07664     12.79967     15.67594        -0.238207     -0.106421      0.270677
Au     16.89028     12.62443     15.61807         0.061183     -0.209612     -0.076348
