19
# total energy = -47.39580873 eVAu     14.90312     14.19442     11.81023        -0.016706      0.004087      0.010227
Au     12.22421     14.89745     11.88457        -0.014289     -0.013246     -0.023323
Au     15.98044     18.72644     10.83394         0.008159     -0.021909      0.037133
Au     16.66576     16.23219     11.94889        -0.008940      0.005284      0.008581
Au     18.49157     18.30244     12.07142        -0.039660     -0.015039      0.013673
Au     11.62341     17.56411     11.80678         0.019219     -0.001822      0.006906
Au     14.07658     16.71546     10.74910         0.014979      0.012377     -0.001463
Au     13.73513     19.32897     12.34014         0.015452      0.000330     -0.009060
Au     11.71582     18.78634     14.25096        -0.019734      0.024781     -0.000404
Au     14.20255     16.81153     13.59673         0.028488      0.009842     -0.010824
Au     16.30648     18.97912     13.62090        -0.006411     -0.011520     -0.002474
Au     17.91832     16.80621     14.40572        -0.028038      0.014605     -0.029613
Au     15.69742     17.38380     15.95750         0.016416     -0.001494     -0.009635
Au     12.91919     17.59371     16.47042        -0.003002      0.009356      0.030877
Au     11.73632     15.95488     14.47499         0.025706      0.008482     -0.008872
Au     14.18693     19.66730     15.14121        -0.012707     -0.013500      0.000346
Au     14.08554     15.12398     16.34664         0.005465      0.009424     -0.016636
Au     13.42875     13.70433     14.10353         0.001002     -0.031483      0.006572
Au     16.03946     14.77073     14.36787         0.014602      0.011445     -0.002012
