19
# total energy = -47.30623367 eVAu     13.96602     13.96566     13.23866        -0.013743     -0.034790      0.030607
Au     11.21152     14.36498     12.94749         0.042206     -0.000514      0.024363
Au     16.58887     18.55959     11.88530        -0.161923      0.023891      0.055191
Au     15.57300     15.94593     12.02240         0.010427     -0.099860     -0.011708
Au     17.18762     16.99413     14.12580        -0.091483     -0.027690     -0.005843
Au     11.57329     17.20711     13.36540        -0.074621      0.001335     -0.068131
Au     12.88029     15.83453     11.33693         0.118193     -0.047231     -0.051650
Au     16.60510     14.27860     14.07516        -0.014795      0.114690      0.016439
Au     13.86584     18.27575     12.26061         0.005600     -0.002318     -0.024842
Au     11.83607     17.24282     16.22324        -0.071983     -0.087054      0.096335
Au     14.20214     16.51308     14.59744         0.164327     -0.037817     -0.022131
Au     15.53101     19.18080     14.46136         0.100870      0.036327     -0.131047
Au     16.26221     16.08796     16.50749        -0.031937     -0.101976     -0.014133
Au     14.36091     18.31776     16.80055         0.030299     -0.036711      0.115561
Au     13.74370     15.69707     17.63005         0.014244      0.107070     -0.042360
Au      9.83880     15.76717     14.92828         0.232703      0.059974     -0.018023
Au     12.80200     19.34887     14.63415        -0.052944      0.056882      0.119699
Au     14.83751     13.65433     16.04480         0.127340      0.015691      0.006085
Au     12.32083     14.47952     15.51532        -0.332781      0.060101     -0.074413
