19
# total energy = -47.47056565 eVAu     14.64891     13.50448     12.68332        -0.011757     -0.016408     -0.035813
Au     12.28270     14.78835     13.47760        -0.008559     -0.027173     -0.015653
Au     16.33512     17.89793     12.10739        -0.036956      0.059542     -0.106407
Au     16.74514     15.25504     12.91398         0.043249     -0.013548     -0.032607
Au     18.54173     17.21294     13.71099         0.094085      0.020605     -0.015866
Au     11.72966     17.21962     12.23156        -0.059496      0.007572     -0.028288
Au     14.23711     16.10645     11.80544         0.022808     -0.002635     -0.051459
Au     13.91597     18.55819     13.29633         0.019445      0.054305     -0.021296
Au     11.95290     17.31079     15.00850        -0.015738      0.023320      0.021176
Au     14.54066     16.07190     14.72843        -0.003315      0.015039     -0.028900
Au     16.32934     18.43983     14.84777         0.036757      0.043984     -0.001431
Au     17.26914     15.82835     15.71549         0.071998     -0.010296      0.032478
Au     15.86429     17.44701     17.42252        -0.033504     -0.024181      0.060811
Au     13.18632     16.86809     17.57667        -0.022253      0.012773      0.071577
Au     12.04774     14.81062     16.26929         0.020242     -0.027452      0.052682
Au     13.92879     19.02141     16.03418        -0.024990      0.043366     -0.005885
Au     15.01173     14.70451     17.08017        -0.053284     -0.035771      0.042156
Au     13.69375     12.96689     15.20748         0.003356     -0.073094      0.018270
Au     16.39990     13.34991     14.93498        -0.042088     -0.049949      0.044455
