19
# total energy = -46.69809410 eVAu     14.06644     13.86366     13.22363         0.010201     -0.308525     -0.212948
Au     11.36835     14.46576     13.12351        -0.360094     -0.408657     -0.216452
Au     16.61013     18.60139     11.99726        -0.000797      0.133516     -0.223743
Au     15.59216     16.05571     12.23925         0.316843     -0.082213     -0.443635
Au     17.70396     16.94031     13.92812         0.266047      0.102026      0.027761
Au     11.40166     17.31915     13.29915        -0.279180      0.168001     -0.463170
Au     12.99844     15.86584     11.53933        -0.068392     -0.014820     -0.654706
Au     16.67255     14.42381     14.13163         0.349055     -0.398984     -0.080953
Au     13.86798     18.34365     12.28120        -0.066418      0.277197     -0.324565
Au     11.72131     17.34705     16.10685        -0.403831     -0.603739      1.118971
Au     13.78540     16.34241     14.50307         0.052011     -0.103697      0.019223
Au     15.57718     18.64133     14.53404         0.415671      0.472873     -0.114410
Au     16.12414     16.34154     16.12843         0.758440      0.032504      0.082679
Au     14.26089     18.31843     16.84126        -0.161927      0.131964      0.590691
Au     13.90846     15.68987     17.48739        -0.925639      0.441772      0.825097
Au      9.80157     15.76266     14.96101        -0.303285     -0.027347      0.116384
Au     12.85889     19.22190     14.65920         0.153616      1.048913     -0.340611
Au     14.75887     13.80367     15.89128         0.274106     -0.905376     -0.021581
Au     12.10836     14.36757     15.72481        -0.026428      0.044593      0.315966
