19
# total energy = -47.13538368 eVAu     17.92461     17.30798     12.70617        -0.007765     -0.006889      0.002057
Au     18.47039     14.66996     12.03641        -0.010731     -0.003859     -0.004592
Au     16.10112     13.27629     12.33782        -0.001212      0.008485     -0.000084
Au     13.57387     16.24551     11.69738         0.001799     -0.007323      0.008842
Au     16.17203     15.73309     10.92668        -0.003141     -0.005381      0.007453
Au     13.50400     13.78933     13.11016         0.002320      0.010649     -0.002526
Au     15.46898     18.28251     11.79498         0.001205     -0.019596      0.017148
Au     13.61123     14.77988     15.88855         0.003746      0.004480     -0.010492
Au     17.83069     13.94365     14.63799        -0.005113      0.005600     -0.009278
Au     12.00092     15.95177     13.95395         0.007111     -0.007870     -0.015500
Au     15.55933     15.75576     13.78433         0.005313      0.008431      0.014479
Au     15.31601     12.76991     14.96021         0.002047      0.023364     -0.007672
Au     13.70469     18.14326     13.95727         0.002070     -0.012512     -0.002109
Au     15.15667     17.22431     16.32541         0.011426      0.005426      0.008747
Au     12.46418     17.33234     16.38243         0.001954     -0.001339     -0.004376
Au     16.23629     14.68264     16.78598        -0.002154      0.003839     -0.008900
Au     16.35197     18.85661     14.38976        -0.001996     -0.012920     -0.002769
Au     17.72338     16.71607     15.56388        -0.003669      0.009748      0.012930
Au     19.87643     15.86439     14.18502        -0.003210     -0.002335     -0.003358
