19
# total energy = -47.36982650 eVAu     14.60482     13.47418     12.81288         0.024175      0.062865      0.065622
Au     12.25801     14.82902     13.44321         0.013729      0.018700     -0.000701
Au     16.31095     17.92478     12.06169        -0.046201     -0.001388     -0.006226
Au     16.80266     15.23969     12.86997        -0.077220      0.064812      0.018375
Au     18.56952     17.33141     13.52476         0.048688     -0.003680      0.015297
Au     11.74866     17.25796     12.17508         0.065462     -0.020780      0.052278
Au     14.26801     16.06567     11.87120         0.005067      0.040761      0.003703
Au     13.94604     18.52962     13.36809         0.013975     -0.021179     -0.029835
Au     11.93321     17.31537     14.95533         0.017120     -0.002224     -0.018444
Au     14.73131     16.04369     14.81533        -0.023416      0.008385     -0.020325
Au     16.37711     18.49574     14.85096        -0.064261     -0.059273     -0.059996
Au     17.48914     15.91364     15.62090        -0.038691     -0.031611      0.045603
Au     15.84225     17.32316     17.35717        -0.007997      0.060469      0.032799
Au     13.22529     16.41255     17.29910        -0.048466      0.062525      0.046872
Au     11.33891     14.83083     16.07859         0.060905      0.005709      0.005552
Au     13.89241     18.91143     16.11934         0.046094     -0.079650     -0.025524
Au     15.35749     14.58849     17.34291         0.030445      0.026822     -0.044052
Au     13.61660     13.41725     15.47859        -0.022305     -0.075430     -0.042325
Au     16.34852     13.45783     15.00701         0.002897     -0.055831     -0.038674
