19
# total energy = -45.37032108 eVAu     14.06324     13.89349     13.24618         0.028731     -0.692922     -0.413984
Au     11.38923     14.51204     13.15850        -0.648796     -1.063791     -0.837754
Au     16.58643     18.56452     12.04638         0.357600      0.662058     -0.854195
Au     15.58419     16.07675     12.28083         0.179644     -0.395876     -0.918712
Au     17.64952     16.93585     13.91924         0.968962      0.111054      0.255208
Au     11.41981     17.28950     13.34119        -0.610294      0.593515     -1.396367
Au     12.99382     15.86631     11.59520         0.091309      0.049819     -1.244977
Au     16.63475     14.46562     14.14001         0.737023     -0.908842     -0.111202
Au     13.88680     18.31894     12.31432        -0.393454      0.565089     -0.646436
Au     11.74766     17.38033     16.00816        -1.351235     -1.419789      2.828601
Au     13.77806     16.34659     14.50976         0.238930     -0.273331     -0.160774
Au     15.55937     18.60156     14.51942         0.557104      0.928225      0.132854
Au     16.07448     16.33658     16.10919         1.943275      0.358288     -0.020151
Au     14.25691     18.29618     16.79976        -0.063247      0.346031      1.278152
Au     13.98269     15.66361     17.41681        -2.133672      1.117364      2.464460
Au      9.86535     15.76270     14.94159        -1.237017     -0.060968      0.517596
Au     12.85993     19.15579     14.68159         0.621884      2.735033     -1.234365
Au     14.74583     13.86543     15.88499         0.649950     -2.385905     -0.546530
Au     12.10867     14.38389     15.68731         0.063302     -0.265051      0.908577
