19
# total energy = -47.34684087 eVAu     13.95463     13.95650     13.24977         0.011347     -0.024615      0.030892
Au     11.22050     14.35774     12.92580        -0.020764      0.032715     -0.021023
Au     16.53587     18.55923     11.88568        -0.008823     -0.004365     -0.024606
Au     15.58769     15.91082     11.99265         0.013923     -0.007629      0.002404
Au     17.11151     17.02762     14.17727         0.017337      0.054570     -0.011237
Au     11.59012     17.19924     13.35560        -0.018247      0.014195      0.046374
Au     12.90782     15.81206     11.31744         0.049980     -0.020808     -0.000844
Au     16.59438     14.31759     14.08169         0.004390     -0.005740      0.034793
Au     13.84382     18.26412     12.26808        -0.007623     -0.015011      0.008623
Au     11.84603     17.24555     16.24160         0.003987      0.039719     -0.027939
Au     14.29822     16.49640     14.60038        -0.106448     -0.018460     -0.002420
Au     15.51429     19.27291     14.40162        -0.024697      0.024063      0.035810
Au     16.28564     15.98777     16.56711         0.055635     -0.001410     -0.017863
Au     14.41633     18.30375     16.77837         0.050892      0.004666     -0.031924
Au     13.72523     15.71893     17.60574         0.037959     -0.015874      0.019603
Au      9.87544     15.77908     14.93898        -0.007461      0.052979     -0.057238
Au     12.79111     19.36500     14.67445        -0.039271     -0.093557      0.034878
Au     14.81267     13.64756     16.03534        -0.030182     -0.021882     -0.014324
Au     12.27543     14.49381     15.50285         0.018064      0.006444     -0.003959
