19
# total energy = -47.24159259 eVAu     18.39724     18.96740     12.37237        -0.091112     -0.150966      0.105147
Au     19.41663     14.45774     12.62201        -0.143212      0.077162      0.092598
Au     13.63742     16.92215     14.09545        -0.180210      0.144599      0.205345
Au     16.71321     13.86097     12.88044        -0.024272     -0.026580     -0.113646
Au     14.90993     15.83227     11.87277        -0.195845     -0.152212     -0.219900
Au     17.55700     16.36429     11.75312         0.252702      0.043806      0.004402
Au     14.06518     14.15204     13.86955         0.011813     -0.096711     -0.020380
Au     19.30604     16.88493     14.01645         0.056459     -0.014745     -0.249921
Au     15.68652     18.32537     12.73718         0.159744      0.157164     -0.132838
Au     14.26218     15.26327     16.41998        -0.059892      0.137639      0.014253
Au     18.55652     14.40967     15.26574         0.105390      0.011777      0.054164
Au     16.37282     16.15768     14.58318        -0.030881     -0.101277      0.047483
Au     16.04114     13.19696     15.52052         0.072120     -0.095800     -0.033409
Au     14.74950     19.33712     15.10621        -0.204746     -0.073485      0.175232
Au     15.90949     17.59848     17.03553        -0.273452      0.117306      0.084780
Au     13.08955     17.75276     16.75351         0.181987     -0.000430     -0.140515
Au     16.83603     14.97687     17.45512         0.043378     -0.087882      0.020170
Au     17.44526     18.84892     15.01302         0.134872      0.149643     -0.165169
Au     18.57757     16.92405     16.61879         0.185156     -0.039006      0.272203
