19
# total energy = -46.99978446 eVAu     14.06262     13.82688     13.21240        -0.012825      0.057834     -0.099777
Au     11.34196     14.42782     13.10431        -0.108808     -0.076390     -0.021734
Au     16.60595     18.61769     11.98356        -0.097248     -0.058445     -0.049478
Au     15.60253     16.03680     12.20136         0.170718     -0.009514     -0.141881
Au     17.72946     16.94160     13.94166        -0.052475      0.056027     -0.071329
Au     11.37655     17.34261     13.26277         0.043383      0.005428     -0.060336
Au     12.98317     15.86484     11.49651        -0.014560     -0.009902     -0.195762
Au     16.69251     14.39069     14.12821         0.098214     -0.097068     -0.067992
Au     13.85391     18.37103     12.25984         0.001468     -0.007369     -0.093494
Au     11.68982     17.35521     16.13701         0.062872     -0.352427      0.447807
Au     13.78678     16.33716     14.50700         0.010488     -0.010386      0.092497
Au     15.60076     18.68425     14.54359         0.100815      0.153635      0.001823
Au     16.18165     16.34923     16.15177         0.112498     -0.049749      0.013038
Au     14.25650     18.34038     16.88747        -0.196302     -0.076612      0.015228
Au     13.90725     15.69426     17.54040        -0.492711      0.188730      0.038043
Au      9.76617     15.75563     14.96909         0.111748      0.015805     -0.028715
Au     12.86238     19.30663     14.63891         0.116407      0.182563     -0.007305
Au     14.77665     13.72901     15.89830         0.037776     -0.180152      0.109659
Au     12.11011     14.34399     15.73625         0.108544      0.267992      0.119709
