19
# total energy = -47.36531799 eVAu     15.18130     15.19146     15.28573         0.000063     -0.000102      0.006077
Au     15.17829     13.07573     13.43643        -0.021291      0.010950     -0.002705
Au     16.94464     17.23482     14.08326        -0.005472      0.011364      0.003001
Au     17.66675     14.48064     13.72328         0.000072      0.005962     -0.013604
Au     19.46797     16.30678     14.82628         0.007832     -0.009048      0.011889
Au     13.08537     15.18370     13.30595        -0.002269     -0.002064     -0.012449
Au     15.59945     15.56324     12.21262         0.000300     -0.002434     -0.024673
Au     14.33061     17.73475     13.46302        -0.006456      0.004685     -0.007172
Au     12.58523     17.06202     15.45874         0.010735     -0.011708      0.003473
Au     17.93500     17.84220     16.61840        -0.012249     -0.007789     -0.003617
Au     17.91137     14.97150     16.60574         0.003238      0.004061      0.015619
Au     16.35624     16.49387     18.40898         0.008072      0.010483     -0.010190
Au     13.73305     15.97066     17.76698        -0.019722     -0.002870      0.015566
Au     12.46056     14.29620     15.81023         0.012085      0.004943     -0.008860
Au     13.16184     13.26326     18.32116         0.006520     -0.000629     -0.006354
Au     15.15239     17.91070     16.22782         0.017455      0.025169      0.006478
Au     15.78117     13.83171     17.83567        -0.009631     -0.012523      0.009096
Au     14.29862     12.23979     15.94304         0.000572     -0.018532      0.023205
Au     16.99099     12.55028     15.58818         0.010147     -0.009919     -0.004779
