19
# total energy = -43.69890481 eVAu     13.92438     12.33886     13.83227        -0.028914      0.012899     -0.007030
Au     12.17421     19.44190     13.83136         0.019981      0.025369     -0.017065
Au     19.20138     17.40650     13.83144        -0.014757     -0.047231      0.001106
Au     11.23493     16.88209     13.43870        -0.041282     -0.035408     -0.000721
Au     17.45235     19.49912     13.43916         0.000659      0.051710     -0.006433
Au     16.61173     12.80698     13.44082         0.038070     -0.048943     -0.019209
Au     17.46585     15.31737     13.95627         0.021521      0.046535      0.028679
Au     12.98495     14.88245     13.95508        -0.004779      0.004195      0.032754
Au     14.84663     18.98333     13.95492         0.000415     -0.001332      0.025760
Au     16.27434     20.45258     15.85933         0.028914     -0.012899      0.007030
Au     18.02451     13.34954     15.86024        -0.019981     -0.025369      0.017065
Au     10.99734     15.38494     15.86016         0.014757      0.047231     -0.001106
Au     15.09936     16.39572     14.84580        -0.000000     -0.000000      0.000000
Au     18.96379     15.90935     16.25290         0.041282      0.035408      0.000721
Au     12.74637     13.29229     16.25244        -0.000659     -0.051710      0.006433
Au     13.58699     19.98443     16.25078        -0.038070      0.048943      0.019209
Au     12.73290     17.47407     15.73533        -0.021521     -0.046535     -0.028679
Au     17.21377     17.90899     15.73652         0.004779     -0.004195     -0.032754
Au     15.35209     13.80808     15.73668        -0.000415      0.001332     -0.025760
