19
# total energy = -47.24084268 eVAu     18.39884     18.96975     12.37059        -0.105950     -0.173868      0.121854
Au     19.41888     14.45617     12.62062        -0.165588      0.092155      0.106465
Au     13.63573     16.92228     14.09386        -0.166796      0.143851      0.220067
Au     16.71258     13.85903     12.87892        -0.020532     -0.009154     -0.101802
Au     14.90896     15.83242     11.87054        -0.189285     -0.155268     -0.202420
Au     17.55667     16.36408     11.75062         0.257297      0.045407      0.025371
Au     14.06338     14.15046     13.86904         0.029352     -0.083247     -0.015337
Au     19.30834     16.88551     14.01736         0.037771     -0.020081     -0.259128
Au     15.68496     18.32641     12.73584         0.174062      0.149149     -0.122573
Au     14.26089     15.26207     16.42126        -0.048458      0.150101      0.002578
Au     18.55819     14.40841     15.26719         0.091597      0.024026      0.043270
Au     16.37258     16.15787     14.58333        -0.030114     -0.103793      0.047474
Au     16.04111     13.19434     15.52114         0.073760     -0.072381     -0.040068
Au     14.74947     19.33988     15.10560        -0.204364     -0.096772      0.180318
Au     15.91049     17.59941     17.03741        -0.283325      0.109610      0.069254
Au     13.08662     17.75332     16.75564         0.207731     -0.007399     -0.158850
Au     16.83635     14.97592     17.45736         0.040616     -0.080448     -0.001140
Au     17.44585     18.85060     15.01448         0.130936      0.136239     -0.178503
Au     18.57936     16.92501     16.62013         0.171289     -0.048128      0.263169
