19
# total energy = -47.40528126 eVAu     14.88485     14.19089     11.81644         0.009213     -0.036459     -0.023569
Au     12.20270     14.84760     11.86307        -0.002154      0.000479     -0.017730
Au     15.95002     18.69555     10.87822         0.022525      0.001500      0.005568
Au     16.69746     16.18410     11.90552         0.026902      0.005331     -0.009978
Au     18.48051     18.29654     12.07559        -0.058184     -0.019970      0.018614
Au     11.66584     17.52977     11.87503        -0.032350     -0.015174      0.019297
Au     14.06805     16.68179     10.73441        -0.012535      0.010438     -0.036006
Au     13.71824     19.35683     12.36198        -0.012074      0.023615     -0.022724
Au     11.68280     18.82463     14.28511        -0.000683      0.012011     -0.010938
Au     14.32968     16.85776     13.55043        -0.022752     -0.006671      0.011191
Au     16.32551     19.04253     13.64593         0.013149      0.013735     -0.000135
Au     17.85922     16.80397     14.39356         0.006737      0.009061     -0.014130
Au     15.68217     17.40759     15.98090         0.016832     -0.008524      0.026397
Au     12.89115     17.62886     16.51264         0.008746     -0.000248      0.012692
Au     11.83703     15.98995     14.44044         0.031314      0.012786     -0.011419
Au     14.17069     19.65851     15.14657         0.006636      0.034870      0.013437
Au     14.05007     15.16229     16.27471        -0.034615     -0.009482      0.005145
Au     13.41088     13.64753     14.08719         0.013109     -0.009153      0.010021
Au     16.03011     14.73670     14.35381         0.020186     -0.018145      0.024265
