19
# total energy = -46.73771658 eVAu     12.93860     15.91284     13.03610        -0.002483      0.000000     -0.002483
Au     15.00216     13.84928     13.03610         0.000000     -0.002483     -0.002483
Au     17.06575     15.91284     13.03610         0.002483      0.000000     -0.002483
Au     15.00216     15.91284     11.22688         0.000000      0.000000     -0.003679
Au     15.00216     17.97643     13.03610         0.000000      0.002483     -0.002483
Au     12.93860     15.91284     17.16325        -0.002483      0.000000      0.002483
Au     12.93860     13.84928     15.09969        -0.002483     -0.002483      0.000000
Au     11.12935     15.91284     15.09969        -0.003679      0.000000     -0.000000
Au     15.00216     13.84928     17.16325         0.000000     -0.002483      0.002483
Au     17.06575     15.91284     17.16325         0.002483      0.000000      0.002483
Au     17.06575     13.84928     15.09969         0.002483     -0.002483      0.000000
Au     18.87497     15.91284     15.09969         0.003679      0.000000      0.000000
Au     15.00216     12.04003     15.09969         0.000000     -0.003679      0.000000
Au     15.00216     15.91284     18.97250         0.000000     -0.000000      0.003679
Au     15.00216     15.91284     15.09969         0.000000      0.000000      0.000000
Au     12.93860     17.97643     15.09969        -0.002483      0.002483      0.000000
Au     15.00216     17.97643     17.16325         0.000000      0.002483      0.002483
Au     17.06575     17.97643     15.09969         0.002483      0.002483      0.000000
Au     15.00216     19.78565     15.09969         0.000000      0.003679     -0.000000
