19
# total energy = -47.21236933 eVAu     15.51557     15.25379     15.31932        -0.071958     -0.046119      0.035159
Au     15.41654     12.99951     13.27970        -0.051997     -0.088320     -0.059794
Au     16.95924     17.32031     13.98572         0.032001     -0.037564      0.001710
Au     17.78740     14.48037     13.69679        -0.000328      0.028586      0.027248
Au     19.47801     16.34892     14.83219        -0.005672     -0.038257      0.020557
Au     13.24768     14.89593     13.66097         0.009322     -0.027914     -0.051860
Au     15.60392     15.52426     12.23765         0.007072      0.044903     -0.034009
Au     14.28221     17.58916     13.48833        -0.026538      0.055084     -0.046069
Au     12.54277     17.06433     15.48062        -0.102595      0.030358      0.033518
Au     17.88140     17.82899     16.54596        -0.022955      0.023317      0.041920
Au     18.03534     14.90271     16.68232         0.083234      0.057892     -0.048638
Au     16.35398     16.44161     18.33783         0.019983      0.072942      0.087961
Au     13.74472     15.89997     17.72161        -0.031055     -0.049148     -0.037840
Au     11.93408     14.43865     16.03886         0.102998      0.028328      0.014169
Au     13.16564     13.21087     18.24188         0.023192     -0.006527      0.098052
Au     15.08991     17.91613     16.23375         0.087679      0.067435     -0.051864
Au     15.81275     13.77851     17.86176        -0.143623     -0.062118      0.067749
Au     14.08581     12.72650     15.66766         0.035083      0.002098     -0.020282
Au     16.88385     12.58278     15.60857         0.056157     -0.054975     -0.077687
