19
# total energy = -38.92313474 eVAu     13.62883     12.20693     13.97264        -0.057067      0.613250      0.039498
Au     12.20700     19.76386     13.97232         0.561289     -0.258712      0.040510
Au     19.46173     17.21654     13.97240        -0.502327     -0.356265      0.039398
Au     11.43427     16.46342     12.58417        -0.228595      0.681202      0.340490
Au     16.99037     19.53603     12.58412         0.703681     -0.143198      0.340337
Au     16.87317     13.18773     12.58450        -0.475406     -0.535967      0.343049
Au     17.58374     15.12848     14.09126         0.190902      1.356210      0.975519
Au     12.75988     14.87821     14.09073         1.082882     -0.848363      0.975754
Au     14.95481     19.18092     14.09090        -1.275021     -0.513998      0.976201
Au     16.56989     20.58451     15.71896         0.057067     -0.613250     -0.039498
Au     17.99172     13.02758     15.71928        -0.561289      0.258712     -0.040510
Au     10.73699     15.57490     15.71920         0.502327      0.356265     -0.039398
Au     15.09936     16.39572     14.84580         0.000000      0.000000      0.000000
Au     18.76445     16.32802     17.10743         0.228595     -0.681202     -0.340490
Au     13.20835     13.25538     17.10748        -0.703681      0.143198     -0.340337
Au     13.32555     19.60368     17.10710         0.475406      0.535967     -0.343049
Au     12.61501     17.66296     15.60034        -0.190902     -1.356210     -0.975519
Au     17.43884     17.91323     15.60087        -1.082882      0.848363     -0.975754
Au     15.24391     13.61049     15.60070         1.275021      0.513998     -0.976201
