19
# total energy = -47.09652540 eVAu     14.05964     13.84110     13.19342         0.035940      0.107373      0.038967
Au     11.32693     14.41481     13.09808         0.067271     -0.003221      0.012598
Au     16.59458     18.61269     11.96518        -0.105602     -0.006193      0.008549
Au     15.62703     16.02966     12.17655        -0.002891     -0.050453     -0.037847
Au     17.72489     16.94986     13.92717        -0.152807      0.008152     -0.010561
Au     11.39014     17.34487     13.25453         0.126608      0.013005      0.098754
Au     12.98303     15.86302     11.46608         0.000265     -0.041266     -0.028454
Au     16.70959     14.37391     14.11472        -0.098307     -0.026954      0.029764
Au     13.84889     18.36582     12.24464         0.013918     -0.059127      0.023408
Au     11.70692     17.29368     16.21796         0.013313     -0.045277      0.080924
Au     13.78944     16.33847     14.52424         0.129689      0.078384     -0.067510
Au     15.60921     18.71139     14.55526         0.105324      0.004044     -0.051760
Au     16.19242     16.33963     16.15777        -0.105862     -0.083657      0.009494
Au     14.22210     18.32850     16.88080         0.025340      0.073223      0.010824
Au     13.82065     15.72309     17.54266        -0.056407     -0.007860      0.008918
Au      9.78215     15.75934     14.96280         0.084090      0.063215     -0.054097
Au     12.88579     19.33220     14.63950        -0.090243     -0.126794      0.035911
Au     14.77890     13.70310     15.92055         0.111257      0.086409     -0.008353
Au     12.13442     14.39054     15.75854        -0.100895      0.016998     -0.099529
