19
# total energy = -47.06252206 eVAu     13.00287     13.04402     13.62539        -0.077622     -0.495970     -0.222075
Au     10.82284     14.70942     13.91696        -0.330329     -0.190097     -0.213323
Au     14.02458     17.46293     12.85934         0.106883      0.231109     -0.355141
Au     15.14404     14.87898     13.41706         0.289761     -0.192152     -0.265151
Au     16.54676     17.17880     13.86869         0.384605      0.137011     -0.141007
Au     11.21478     17.17098     12.73474        -0.368687      0.176617     -0.368240
Au     12.81650     15.15104     11.96117         0.013381     -0.110636     -0.539031
Au     12.30703     19.04343     14.33012        -0.069023      0.524521     -0.152535
Au     10.50378     17.14649     15.40016        -0.382816      0.209684      0.027069
Au     13.10689     15.96078     15.13018        -0.000292     -0.000549     -0.000119
Au     14.69287     18.32558     15.51463         0.215987      0.371563      0.078157
Au     15.81237     15.74157     16.07235         0.399896     -0.051343      0.169809
Au     14.32605     17.09944     17.95865         0.259719      0.206434      0.437912
Au     11.76798     15.92927     17.67208        -0.176542      0.010155      0.400713
Au      9.66714     14.74281     16.39166        -0.386000     -0.136556      0.140915
Au     12.28222     18.54871     16.97552        -0.194811      0.399701      0.323290
Au     14.07030     14.42175     17.86623         0.096090     -0.273368      0.469785
Au     12.08701     13.49215     16.18888        -0.122067     -0.388963      0.156227
Au     14.83556     13.20697     15.58970         0.341867     -0.427161      0.052744
