19
# total energy = -47.42851066 eVAu     14.67137     13.49660     12.73810        -0.025671      0.066661      0.037926
Au     12.29751     14.80369     13.44863         0.025230      0.001251      0.027588
Au     16.32159     17.96669     11.99176        -0.008535     -0.070183      0.118372
Au     16.74941     15.31319     12.93149        -0.054564     -0.030531     -0.044554
Au     18.56767     17.28517     13.59828        -0.036059     -0.004132      0.002175
Au     11.74072     17.23917     12.20348         0.015353     -0.015585      0.031550
Au     14.26186     16.10265     11.82388         0.017338      0.004579      0.045304
Au     13.94073     18.55233     13.31055         0.024860     -0.042079      0.024329
Au     11.96666     17.32982     14.98528         0.026511     -0.015133      0.004939
Au     14.55896     16.01578     14.82417         0.003247     -0.017189      0.029323
Au     16.34503     18.39970     14.80675        -0.063836      0.041088     -0.004870
Au     17.37199     15.86982     15.67105        -0.024119     -0.036439      0.047015
Au     15.84211     17.36471     17.40828         0.058843      0.048308     -0.006562
Au     13.18440     16.69391     17.50369        -0.024402      0.075864     -0.030386
Au     11.74479     14.81084     16.20007         0.011898      0.017850     -0.029488
Au     13.95315     18.97941     16.07044        -0.007407     -0.063077     -0.046516
Au     15.12651     14.63644     17.21613         0.008617      0.050522     -0.081768
Au     13.65450     13.10725     15.32413        -0.014444     -0.010837     -0.087115
Au     16.36194     13.39515     14.99595         0.067141     -0.000938     -0.037261
