19
# total energy = -47.31305965 eVAu     15.17904     15.15794     15.33077         0.006803      0.083965     -0.056259
Au     15.28323     13.08564     13.39251        -0.016468     -0.073732     -0.080775
Au     16.90741     17.22084     14.08785         0.006376      0.016084     -0.032567
Au     17.69182     14.54607     13.68566        -0.010147     -0.114668      0.081396
Au     19.46372     16.32341     14.89639         0.005894      0.012173     -0.062761
Au     13.13792     15.00948     13.34458         0.004766      0.060403      0.015466
Au     15.61270     15.55051     12.11217         0.001240     -0.019918      0.090798
Au     14.26540     17.58158     13.44099         0.079970      0.104982      0.023765
Au     12.59430     17.14957     15.52568        -0.045541     -0.031815     -0.016450
Au     17.93153     17.88541     16.61848        -0.001249     -0.036338     -0.007749
Au     17.91698     14.94678     16.62515         0.013539      0.008380     -0.003987
Au     16.40670     16.45462     18.39219        -0.042766      0.065072      0.057472
Au     13.76810     15.99026     17.79608        -0.023882     -0.045854      0.043609
Au     12.36247     14.41926     15.89289         0.029565     -0.031270     -0.068623
Au     13.12629     13.23352     18.29285         0.017317      0.037699      0.057629
Au     15.18602     17.91700     16.21871        -0.085726     -0.007184      0.003610
Au     15.75423     13.79468     17.83871         0.070993      0.024430      0.025033
Au     14.23603     12.36709     15.85714         0.067831     -0.026001     -0.013641
Au     16.99697     12.56966     15.57271        -0.078517     -0.026406     -0.055965
