19
# total energy = -47.32888171 eVAu     13.96390     13.96392     13.23928        -0.018363     -0.039706      0.061335
Au     11.21629     14.36296     12.94825         0.035571     -0.000668     -0.056870
Au     16.57258     18.56105     11.88576        -0.102840      0.024557      0.015301
Au     15.57605     15.93799     12.01928         0.021419     -0.080313     -0.037914
Au     17.17443     16.99514     14.13069        -0.056711      0.007249      0.006332
Au     11.57274     17.20791     13.36849         0.013544      0.020042     -0.128206
Au     12.89200     15.82897     11.33072         0.054431     -0.041078     -0.011357
Au     16.60151     14.28892     14.07653         0.013029      0.059638      0.009167
Au     13.86081     18.27051     12.25985        -0.036841      0.010040      0.020262
Au     11.83474     17.24093     16.22343        -0.011365     -0.033518      0.114087
Au     14.22821     16.51202     14.59589         0.074173     -0.028585     -0.004461
Au     15.53499     19.19529     14.44557        -0.008732      0.031763     -0.041233
Au     16.26337     16.06770     16.51653         0.005829     -0.063810      0.002877
Au     14.36727     18.31475     16.80430         0.047626     -0.011514      0.023961
Au     13.73736     15.70418     17.62504         0.007078      0.053248     -0.049084
Au      9.85686     15.77130     14.92804         0.056403      0.040274      0.002754
Au     12.79637     19.35264     14.64854         0.012301      0.014823      0.081900
Au     14.83859     13.65637     16.04152        -0.011232      0.017686      0.006487
Au     12.29866     14.48315     15.51272        -0.095322      0.019872     -0.015338
