19
# total energy = -47.25334267 eVAu     12.99661     12.99978     13.60513        -0.028680     -0.061304     -0.016765
Au     10.79314     14.69080     13.89016        -0.034647     -0.000997      0.068596
Au     14.02921     17.48618     12.82210         0.070487     -0.005473      0.026899
Au     15.16923     14.85478     13.39009         0.040615      0.063287      0.011083
Au     16.59691     17.19653     13.85032        -0.167262     -0.059137      0.062345
Au     11.18240     17.18697     12.70154        -0.059178      0.013331     -0.032881
Au     12.81699     15.14092     11.91320         0.020940     -0.005414     -0.065626
Au     12.30013     19.09010     14.31676         0.011388      0.063577     -0.024794
Au     10.46821     17.17262     15.40060        -0.024115     -0.065822      0.027966
Au     13.10688     15.96077     15.13016        -0.000211     -0.000311     -0.000191
Au     14.70975     18.36472     15.52619         0.052810     -0.031456     -0.046142
Au     15.84984     15.73320     16.09419         0.021670      0.040729     -0.061124
Au     14.34856     17.11773     17.99821         0.047830      0.028397      0.040756
Au     11.75562     15.93299     17.71428        -0.058856     -0.033365     -0.033994
Au      9.61703     14.72509     16.41004         0.168105      0.059530     -0.062783
Au     12.26542     18.58481     17.00418        -0.041341      0.037411      0.043950
Au     14.07965     14.39763     17.90787        -0.009132     -0.036804      0.057950
Au     12.08051     13.45110     16.20384        -0.067616      0.033096      0.006166
Au     14.86548     13.16843     15.59465         0.057195     -0.039276     -0.001410
