19
# total energy = -47.30566773 eVAu     15.12473     15.15819     15.33077         0.120563      0.128802     -0.118280
Au     15.25350     13.09893     13.41062        -0.010108     -0.075156     -0.025785
Au     16.91199     17.21001     14.10017        -0.051775      0.038453     -0.033357
Au     17.68285     14.55090     13.69363        -0.037022     -0.162769      0.074718
Au     19.47427     16.33004     14.88596        -0.060090     -0.015564      0.006089
Au     13.11973     15.04069     13.28280        -0.016539      0.035326      0.103181
Au     15.61457     15.54938     12.10066         0.025686     -0.005411      0.129282
Au     14.27192     17.58897     13.43949         0.119089      0.097503      0.039052
Au     12.60790     17.14696     15.53170        -0.046814     -0.065843     -0.016003
Au     17.93975     17.89499     16.62523         0.011876     -0.080307     -0.034117
Au     17.89711     14.94856     16.60934         0.111768      0.103377     -0.057114
Au     16.41183     16.45942     18.39459        -0.023936      0.061807      0.074689
Au     13.76643     15.99380     17.81820        -0.062610     -0.035137      0.029237
Au     12.41628     14.39864     15.85988        -0.050270     -0.032714     -0.111999
Au     13.12178     13.24594     18.29285         0.014815      0.027433      0.072208
Au     15.19327     17.90626     16.23421        -0.079133      0.026433     -0.032387
Au     15.75092     13.80667     17.83101         0.054749      0.006952      0.089343
Au     14.26540     12.31044     15.90343         0.027369     -0.018736     -0.078748
Au     16.99662     12.56452     15.57698        -0.047617     -0.034448     -0.110008
