19
# total energy = -39.52243134 eVAu     13.67598     12.21002     14.02015        -0.648167     -0.063832     -0.565842
Au     12.18617     19.72147     14.01984         0.268628      0.592996     -0.565119
Au     19.43540     17.25580     14.01988         0.380088     -0.528100     -0.565408
Au     11.41145     16.53575     12.65159         0.155522      0.340600      0.795147
Au     17.06435     19.51962     12.65152         0.217331     -0.304007      0.795677
Au     16.82193     13.13191     12.65211        -0.373164     -0.035911      0.796447
Au     17.65470     15.12057     14.20053        -0.230648      1.639948      0.081803
Au     12.71776     14.82055     14.19990         1.535807     -0.621162      0.081740
Au     14.92598     19.24630     14.20013        -1.306167     -1.019315      0.080140
Au     16.52274     20.58142     15.67145         0.648167      0.063832      0.565842
Au     18.01255     13.06997     15.67176        -0.268628     -0.592996      0.565119
Au     10.76332     15.53564     15.67172        -0.380088      0.528100      0.565408
Au     15.09936     16.39572     14.84580         0.000000     -0.000000      0.000000
Au     18.78727     16.25569     17.04001        -0.155522     -0.340600     -0.795147
Au     13.13437     13.27179     17.04008        -0.217331      0.304007     -0.795677
Au     13.37679     19.65950     17.03949         0.373164      0.035911     -0.796447
Au     12.54405     17.67087     15.49107         0.230648     -1.639948     -0.081803
Au     17.48096     17.97089     15.49170        -1.535807      0.621162     -0.081740
Au     15.27274     13.54511     15.49147         1.306167      1.019315     -0.080140
