19
# total energy = -47.48233658 eVAu     14.64638     13.50145     12.66690         0.014178      0.039717      0.027614
Au     12.28561     14.77875     13.48505         0.027861      0.017722      0.025510
Au     16.32932     17.90428     12.09479         0.005554     -0.007145      0.011547
Au     16.75688     15.24815     12.90534        -0.011114      0.018737      0.042798
Au     18.55303     17.20934     13.71827        -0.041055      0.007407     -0.022044
Au     11.72288     17.21403     12.23894         0.028148     -0.012484      0.029349
Au     14.23886     16.10670     11.78372        -0.003447      0.008372      0.034056
Au     13.91578     18.57885     13.28530        -0.000694     -0.033519      0.006906
Au     11.95499     17.30924     15.02139         0.033078     -0.024800     -0.001826
Au     14.54685     16.08696     14.70443         0.037289      0.018705     -0.021637
Au     16.33886     18.45288     14.85032        -0.004405     -0.049076      0.003387
Au     17.27179     15.82147     15.72704        -0.041907      0.001155     -0.011307
Au     15.85261     17.44313     17.43315        -0.032768     -0.044299     -0.055148
Au     13.17074     16.90498     17.61163        -0.029106      0.009668      0.001474
Au     12.10484     14.80213     16.29570         0.046464      0.016896     -0.019158
Au     13.92329     19.03747     16.02789         0.025297     -0.041635     -0.019535
Au     14.96973     14.70523     17.06933         0.016707      0.025861     -0.029353
Au     13.69119     12.91752     15.19028        -0.031940     -0.013450     -0.011106
Au     16.38730     13.33977     14.94264        -0.038141      0.062167      0.008473
