19
# total energy = -47.12652840 eVAu     17.93321     17.31241     12.70047        -0.004033     -0.007721      0.006288
Au     18.46359     14.66509     12.02859         0.036083     -0.001897     -0.005007
Au     16.10136     13.28050     12.34471        -0.012761     -0.011913     -0.002529
Au     13.57898     16.24909     11.70418         0.004398      0.000854     -0.018645
Au     16.17187     15.73710     10.93363        -0.011369      0.003558     -0.011205
Au     13.50894     13.79267     13.11513         0.004757     -0.015351     -0.006255
Au     15.47551     18.28488     11.81434        -0.014687     -0.012614     -0.035667
Au     13.60205     14.77468     15.89472         0.006540      0.008506     -0.006210
Au     17.83954     13.93585     14.63889        -0.004787      0.009686     -0.002070
Au     12.00110     15.94587     13.94391        -0.032362      0.009866      0.016102
Au     15.56429     15.76294     13.79669        -0.009916     -0.014249     -0.024197
Au     15.32287     12.78471     14.97150        -0.014733     -0.022285     -0.027595
Au     13.69606     18.15156     13.95685         0.005660     -0.009540      0.003209
Au     15.14512     17.21911     16.31488         0.024399      0.019680      0.036346
Au     12.44733     17.32288     16.36692         0.006783      0.009362      0.013609
Au     16.23805     14.69116     16.78789         0.002473      0.004672      0.001985
Au     16.35429     18.85439     14.39768         0.000424     -0.001812      0.005843
Au     17.72485     16.70838     15.55035         0.007357      0.022575      0.039550
Au     19.87780     15.85199     14.16306         0.005774      0.008622      0.016449
