19
# total energy = -47.16567233 eVAu     15.51885     15.27208     15.33047        -0.053095      0.003373      0.055910
Au     15.41541     13.01272     13.30883        -0.061473     -0.015259     -0.196059
Au     16.99305     17.32721     13.97967        -0.031250      0.002385     -0.025047
Au     17.80039     14.49066     13.71608         0.014509      0.009010     -0.036616
Au     19.50449     16.38497     14.79590         0.073104     -0.064624     -0.008900
Au     13.24676     14.87578     13.68321        -0.022344     -0.001365     -0.000196
Au     15.62010     15.54087     12.25093         0.034351     -0.111681     -0.071474
Au     14.30653     17.57115     13.49483        -0.138980      0.103520      0.085127
Au     12.53794     17.03170     15.49155         0.046702      0.041373     -0.029291
Au     17.91337     17.82563     16.53304        -0.099500      0.056696      0.121521
Au     18.05967     14.92305     16.65626        -0.065085     -0.083064      0.035410
Au     16.35088     16.42576     18.30132        -0.024385      0.065238      0.027643
Au     13.73696     15.84434     17.69535         0.070202      0.123383     -0.029815
Au     11.85374     14.41931     16.06584         0.122622      0.036293     -0.077686
Au     13.11200     13.19577     18.24266         0.051769     -0.035757      0.069276
Au     15.11076     17.94968     16.21627        -0.009533     -0.084400      0.001385
Au     15.78425     13.75246     17.87627         0.033138      0.015594     -0.034768
Au     14.07466     12.76235     15.68172        -0.044985     -0.026751      0.013509
Au     16.88103     12.59781     15.60131         0.104234     -0.033964      0.100071
