19
# total energy = -46.73552856 eVAu     12.94019     15.91284     13.03769        -0.009700     -0.000000     -0.009700
Au     15.00216     13.85087     13.03769        -0.000000     -0.009700     -0.009700
Au     17.06416     15.91284     13.03769         0.009700      0.000000     -0.009700
Au     15.00216     15.91284     11.21861        -0.000000      0.000000      0.058494
Au     15.00216     17.97484     13.03769        -0.000000      0.009700     -0.009700
Au     12.94019     15.91284     17.16166        -0.009700      0.000000      0.009700
Au     12.94019     13.85087     15.09969        -0.009700     -0.009700      0.000000
Au     11.12108     15.91284     15.09969         0.058494      0.000000      0.000000
Au     15.00216     13.85087     17.16166        -0.000000     -0.009700      0.009700
Au     17.06416     15.91284     17.16166         0.009700     -0.000000      0.009700
Au     17.06416     13.85087     15.09969         0.009700     -0.009700      0.000000
Au     18.88324     15.91284     15.09969        -0.058494     -0.000000      0.000000
Au     15.00216     12.03176     15.09969        -0.000000      0.058494      0.000000
Au     15.00216     15.91284     18.98077        -0.000000     -0.000000     -0.058494
Au     15.00216     15.91284     15.09969        -0.000000      0.000000      0.000000
Au     12.94019     17.97484     15.09969        -0.009700      0.009700      0.000000
Au     15.00216     17.97484     17.16166        -0.000000      0.009700      0.009700
Au     17.06416     17.97484     15.09969         0.009700      0.009700      0.000000
Au     15.00216     19.79392     15.09969        -0.000000     -0.058494      0.000000
