19
# total energy = -42.55986374 eVAu     13.68303     12.16392     13.97033         0.029161      0.197926     -0.088695
Au     12.14283     19.73859     13.97011         0.156296     -0.123342     -0.088547
Au     19.47198     17.28501     13.97011        -0.185930     -0.074154     -0.089407
Au     11.44154     16.67396     13.01756         0.008591      0.099183      0.251832
Au     17.16930     19.42431     13.01786         0.083497     -0.057483      0.250758
Au     16.68705     13.08860     13.01827        -0.091207     -0.042945      0.251297
Au     17.59057     15.30565     14.33586         0.064437      0.184213     -0.160459
Au     12.91003     14.78317     14.33527         0.126659     -0.147718     -0.161427
Au     14.79765     19.09818     14.33481        -0.191303     -0.036438     -0.159942
Au     16.51569     20.62752     15.72127        -0.029161     -0.197926      0.088695
Au     18.05589     13.05285     15.72149        -0.156296      0.123342      0.088547
Au     10.72674     15.50643     15.72149         0.185930      0.074154      0.089407
Au     15.09936     16.39572     14.84580         0.000000     -0.000000      0.000000
Au     18.75718     16.11748     16.67404        -0.008591     -0.099183     -0.251832
Au     13.02942     13.36710     16.67374        -0.083497      0.057483     -0.250758
Au     13.51167     19.70281     16.67333         0.091207      0.042945     -0.251297
Au     12.60818     17.48579     15.35574        -0.064437     -0.184213      0.160459
Au     17.28869     18.00827     15.35633        -0.126659      0.147718      0.161427
Au     15.40107     13.69323     15.35679         0.191303      0.036438      0.159942
