19
# total energy = -47.34750035 eVAu     14.90779     14.24758     11.83600         0.002322      0.019837      0.010170
Au     12.21841     14.88393     11.88483         0.044893      0.013569     -0.015526
Au     16.04782     18.77434     10.76981        -0.048451     -0.062184      0.090063
Au     16.64142     16.30881     12.00363         0.011324     -0.048932     -0.033008
Au     18.53706     18.31792     12.05522        -0.034816     -0.011830      0.013104
Au     11.61318     17.52988     11.86077         0.035795      0.045301     -0.068053
Au     14.09522     16.78004     10.76256        -0.043640     -0.102389      0.034252
Au     13.76628     19.29231     12.29172        -0.057840      0.006567      0.101387
Au     11.70693     18.79095     14.26257         0.044347      0.016497     -0.014098
Au     14.08982     16.77271     13.63742        -0.004380     -0.002206      0.001691
Au     16.30320     18.89230     13.57593        -0.001749      0.054413      0.029771
Au     18.02236     16.81781     14.40930        -0.115064      0.004697     -0.033291
Au     15.73698     17.33976     15.92424        -0.104949      0.051246      0.017177
Au     12.90776     17.60091     16.47602         0.044089      0.018795     -0.015192
Au     11.62314     15.91589     14.51485         0.180588      0.062870     -0.063746
Au     14.20423     19.62208     15.10693         0.006580     -0.018476     -0.012464
Au     14.03029     15.13474     16.31631         0.086404     -0.003800      0.024302
Au     13.41918     13.69407     14.09830         0.044486      0.013757     -0.018291
Au     16.06593     14.82738     14.39514        -0.089938     -0.057731     -0.048248
