19
# total energy = -47.37887074 eVAu     18.41604     18.90258     12.37308        -0.001601      0.055417     -0.012051
Au     19.21300     14.38345     12.79640        -0.101992     -0.027442      0.085190
Au     13.62374     16.93095     14.08773         0.020913      0.039014      0.087883
Au     16.51981     13.84532     12.58496        -0.009258     -0.049090     -0.005921
Au     14.75095     15.88537     11.75708         0.048876     -0.005138      0.015130
Au     17.51029     16.34918     11.78590        -0.005033     -0.033554     -0.063989
Au     14.08144     14.16888     13.87017        -0.005036     -0.074284     -0.027836
Au     19.26598     16.87164     14.05735         0.065496     -0.012814      0.028128
Au     15.71354     18.28938     12.76035        -0.017300      0.063053     -0.094453
Au     14.28161     15.27707     16.40159         0.046641      0.014005     -0.039294
Au     18.78312     14.51901     15.51377         0.013696     -0.041784      0.023620
Au     16.40863     16.02750     14.58501         0.010615     -0.020602     -0.002614
Au     16.27347     13.23139     15.33301        -0.016400      0.078606     -0.006603
Au     14.74250     19.33879     15.11157        -0.078753      0.062968      0.046272
Au     15.91116     17.61169     17.04775        -0.083947      0.006604     -0.049763
Au     13.12822     17.76977     16.72009         0.002739     -0.065116      0.012497
Au     16.83608     14.98861     17.43483         0.041028     -0.059739      0.032198
Au     17.43894     18.80248     14.99299         0.069642      0.089950      0.018515
Au     18.63073     17.03988     16.77732        -0.000324     -0.020054     -0.046912
