19
# total energy = -47.12974631 eVAu     14.06537     13.86750     13.19482         0.001017     -0.035977      0.060077
Au     11.33766     14.41010     13.09723         0.022675     -0.005805     -0.057536
Au     16.57271     18.61248     11.95779        -0.052429      0.031492     -0.060331
Au     15.63037     16.01513     12.16159         0.023287     -0.014499     -0.074895
Au     17.69593     16.95311     13.92053        -0.111023     -0.077578      0.035432
Au     11.42189     17.34975     13.27351        -0.013148     -0.076286      0.011803
Au     12.98420     15.85428     11.45334        -0.032535     -0.023616     -0.060832
Au     16.69530     14.36336     14.11606         0.051871      0.008323     -0.031573
Au     13.84765     18.35130     12.24509         0.020938     -0.000567      0.022631
Au     11.71995     17.27228     16.25309        -0.054395     -0.007953      0.049156
Au     13.81604     16.35597     14.51646         0.075837      0.070562     -0.016173
Au     15.62762     18.71997     14.55506        -0.033193      0.041039      0.029034
Au     16.16839     16.31945     16.16490        -0.007276     -0.012019      0.018168
Au     14.21831     18.34048     16.87550         0.120216      0.053500      0.066171
Au     13.78916     15.72579     17.53895         0.010779      0.002334      0.079001
Au      9.80084     15.77298     14.95016        -0.019297      0.087757     -0.060495
Au     12.87287     19.30747     14.65075         0.004409     -0.011379      0.017648
Au     14.79851     13.71772     15.92954        -0.087208      0.048133      0.046627
Au     12.12397     14.40657     15.74605         0.079476     -0.077461     -0.073912
