19
# total energy = -47.34802205 eVAu     15.15328     15.19269     15.28649         0.049650     -0.043384     -0.018225
Au     15.22518     13.06147     13.38384        -0.024954      0.016103      0.079813
Au     16.92890     17.21899     14.08755        -0.029028      0.032448     -0.011898
Au     17.67708     14.49396     13.73287         0.003653     -0.005192     -0.033663
Au     19.46430     16.32833     14.84833         0.017736     -0.025411      0.004683
Au     13.11497     15.09469     13.29320        -0.029342      0.053008      0.026874
Au     15.62480     15.54461     12.16918        -0.008295      0.034324      0.025224
Au     14.30421     17.65578     13.46411         0.017687      0.022962      0.011538
Au     12.58881     17.10687     15.51065         0.007146     -0.058257     -0.028315
Au     17.92462     17.85989     16.61476         0.017577      0.005393     -0.003420
Au     17.90206     14.96520     16.60489         0.033242      0.016360     -0.013390
Au     16.38448     16.49125     18.41541        -0.028906     -0.021281      0.011308
Au     13.74705     15.97216     17.81965        -0.001877      0.046966     -0.071184
Au     12.43367     14.35891     15.83268        -0.036193      0.002103     -0.018255
Au     13.15176     13.27210     18.30720         0.009694     -0.039919      0.036918
Au     15.15943     17.90791     16.24469        -0.006908      0.008649     -0.018092
Au     15.78248     13.82587     17.83819        -0.019808     -0.010273     -0.013545
Au     14.27657     12.30668     15.90429         0.011415     -0.027263     -0.012730
Au     16.97717     12.54594     15.56353         0.017513     -0.007336      0.046359
