19
# total energy = -47.19551404 eVAu     14.49199     12.74496     13.55654         0.091023      0.092853      0.126288
Au     12.23593     14.07688     14.33420        -0.034921      0.084108      0.008762
Au     16.67725     16.88034     12.47336        -0.144887     -0.168891      0.028316
Au     16.80938     14.31165     13.52617         0.079741      0.007201     -0.053835
Au     18.69045     16.28669     14.26619        -0.003297     -0.001897     -0.026266
Au     12.07511     16.78235     13.64779         0.060335     -0.041486     -0.005038
Au     14.24943     15.35939     12.59870         0.013346      0.095371      0.125050
Au     14.46637     18.12974     13.47519        -0.074671     -0.017993      0.016320
Au     11.13558     16.09530     16.12469         0.130587      0.023771      0.051155
Au     14.79377     14.99054     15.45275        -0.078010      0.063976     -0.019770
Au     16.40166     17.46831     15.34563        -0.091740      0.005495      0.037707
Au     17.52634     15.02921     16.43310        -0.030496      0.035678      0.009382
Au     15.53330     16.56822     17.80355        -0.077255     -0.102456     -0.096795
Au     13.12288     15.14734     17.80474        -0.056794     -0.039604     -0.051542
Au     11.04695     13.41756     16.82505         0.190339      0.098380     -0.061631
Au     13.55928     17.51953     16.05638         0.021963     -0.054340     -0.065647
Au     15.55691     13.77936     18.05472        -0.040503     -0.051906     -0.015348
Au     13.62337     12.48707     16.32033        -0.106031      0.098340     -0.034780
Au     16.33785     12.55411     15.65460         0.151269     -0.126599      0.027673
