19
# total energy = -47.27877382 eVAu     15.42844     15.20152     15.33331        -0.025641     -0.013520     -0.018822
Au     15.40459     12.97124     13.22990        -0.033866      0.049821      0.052769
Au     16.92776     17.26745     14.01860         0.024151      0.020134     -0.001952
Au     17.74291     14.49136     13.69208         0.001811      0.003720     -0.006579
Au     19.44151     16.31227     14.88079         0.006026      0.000867      0.009943
Au     13.24713     14.91470     13.59082        -0.014377      0.005782     -0.066222
Au     15.59112     15.53875     12.20901         0.005268     -0.028610     -0.035031
Au     14.25427     17.60834     13.45871        -0.029874      0.001974      0.011278
Au     12.51173     17.14417     15.48821         0.037777      0.019534     -0.013684
Au     17.86282     17.83197     16.58342         0.067416      0.047132     -0.020977
Au     17.99033     14.91345     16.71153         0.031371     -0.009861     -0.055448
Au     16.35547     16.47351     18.39622         0.005154     -0.034904      0.044963
Au     13.77722     15.94064     17.72089        -0.034765     -0.001200      0.043824
Au     12.12622     14.47894     16.02976        -0.001800     -0.077731     -0.004080
Au     13.18651     13.20830     18.30099        -0.018642      0.018173     -0.035720
Au     15.11260     17.92023     16.18546        -0.013602      0.035001      0.019823
Au     15.79451     13.77284     17.84937        -0.015368      0.010858      0.042769
Au     14.15032     12.64376     15.68120        -0.067686     -0.041493      0.023076
Au     16.91540     12.56988     15.56123         0.076646     -0.005676      0.010071
