19
# total energy = -47.33736170 eVAu     13.96048     13.96476     13.23708        -0.007516     -0.042151      0.070329
Au     11.21751     14.36035     12.94449         0.010985      0.004334     -0.061401
Au     16.56444     18.55869     11.88542        -0.082361      0.019355      0.006143
Au     15.57938     15.93254     12.01191         0.017580     -0.066049     -0.039769
Au     17.15012     17.00489     14.15028        -0.032372      0.036596      0.002567
Au     11.58076     17.20198     13.36912         0.001308      0.024776     -0.077169
Au     12.89310     15.82562     11.32718         0.057085     -0.040365     -0.019015
Au     16.59715     14.29835     14.07724         0.014162      0.033438      0.015108
Au     13.85558     18.26645     12.26152        -0.024307      0.013492      0.020600
Au     11.84015     17.24276     16.22457        -0.005068     -0.006270      0.076889
Au     14.25788     16.50848     14.59808         0.009409     -0.031786     -0.002734
Au     15.52868     19.22554     14.42757        -0.025227      0.025992     -0.009841
Au     16.26995     16.03819     16.53709         0.027005     -0.046177      0.005937
Au     14.38283     18.30949     16.79419         0.054639      0.003778     -0.004757
Au     13.73035     15.70844     17.61973         0.017825      0.027284     -0.034510
Au      9.86124     15.76920     14.93461         0.039887      0.053615     -0.017306
Au     12.79415     19.36130     14.65248         0.001926     -0.031044      0.073744
Au     14.83184     13.65184     16.03903        -0.040073      0.009949      0.000354
Au     12.29114     14.48683     15.50883        -0.034887      0.011232     -0.005170
