19
# total energy = -47.04365983 eVAu     15.57752     14.09664     12.01688         0.026416     -0.083614      0.067334
Au     12.95542     14.23405     12.92549         0.012751     -0.082292      0.070368
Au     16.61502     16.81828     11.91020        -0.013097      0.029164     -0.016041
Au     18.14550     14.66421     12.87606        -0.007470     -0.095989     -0.024814
Au     18.94607     17.26294     13.35229         0.109407      0.173976      0.011406
Au     12.33157     17.04257     13.39588         0.007338      0.025663     -0.028154
Au     13.97300     16.23389     11.31361        -0.074300     -0.059025     -0.198669
Au     14.55295     18.55796     12.63720         0.004770      0.161386     -0.007412
Au     11.44402     17.65446     15.95344        -0.063457      0.181495      0.073711
Au     14.98083     15.88661     14.27452         0.000231     -0.005327     -0.000426
Au     16.65378     18.35949     14.42531         0.024196     -0.047124     -0.019286
Au     17.77878     15.81761     15.41517         0.000573      0.015084      0.034434
Au     15.96934     17.33964     16.90405         0.035348      0.144955      0.076843
Au     13.49576     16.04191     16.90110         0.019640      0.011839      0.025201
Au     11.53411     15.00876     15.16910        -0.022137     -0.091183     -0.019918
Au     13.99858     18.49915     15.34641        -0.034911     -0.044453      0.002923
Au     15.86453     14.60819     17.01246         0.041585     -0.163282      0.147076
Au     13.81851     13.49140     15.52766        -0.036057     -0.036274     -0.094612
Au     16.44110     13.35417     14.61864        -0.030823     -0.034998     -0.099964
