19
# total energy = -47.39538380 eVAu     18.41284     18.88798     12.37884         0.043711      0.057182     -0.047401
Au     19.11283     14.34844     12.88181        -0.108359     -0.042494      0.093258
Au     13.66205     16.94780     14.11856         0.019036     -0.079785     -0.050546
Au     16.45093     13.81578     12.46500        -0.023332     -0.057043      0.088779
Au     14.72513     15.90724     11.76339        -0.008473      0.021516      0.016482
Au     17.48872     16.33607     11.79090         0.041501      0.002131     -0.047906
Au     14.06065     14.15234     13.84862         0.022474     -0.006349      0.009071
Au     19.25795     16.86282     14.08030         0.056372      0.005156     -0.029223
Au     15.71687     18.30427     12.75255        -0.046500      0.070483     -0.008928
Au     14.31022     15.25621     16.38417         0.067933     -0.030610     -0.044260
Au     18.88272     14.53961     15.61174        -0.077009     -0.073514      0.019354
Au     16.44883     15.98644     14.56353         0.055581      0.148847     -0.077124
Au     16.33064     13.30028     15.27294         0.011054     -0.064010      0.005031
Au     14.73126     19.37051     15.11318         0.002645      0.071136     -0.019046
Au     15.88962     17.61048     17.00068         0.067264     -0.065509      0.015599
Au     13.13730     17.74144     16.71953        -0.082451     -0.040409      0.073685
Au     16.85405     14.98343     17.46358        -0.001092     -0.013362     -0.021290
Au     17.44373     18.81790     14.98736        -0.018307      0.079009      0.025538
Au     18.61291     17.06390     16.79425        -0.022047      0.017627     -0.001073
