19
# total energy = -47.38890194 eVAu     14.63722     13.47084     12.77904        -0.035436      0.024004      0.022438
Au     12.28665     14.83271     13.45303        -0.031805     -0.072478     -0.011608
Au     16.29733     17.92979     12.04954         0.097715      0.047049     -0.052355
Au     16.78329     15.25197     12.87881         0.028245      0.086482      0.030605
Au     18.55662     17.32661     13.52931         0.007002     -0.034498      0.058290
Au     11.75023     17.24442     12.19744        -0.017937      0.033070     -0.058648
Au     14.27147     16.07662     11.88851        -0.031800     -0.038164     -0.114030
Au     13.95347     18.51052     13.36722        -0.052135      0.107897     -0.030882
Au     11.96318     17.31053     14.95852        -0.047126      0.036163      0.058875
Au     14.69145     16.02002     14.84585        -0.005230     -0.011960      0.020189
Au     16.36049     18.47849     14.84126         0.049906     -0.058790     -0.061852
Au     17.47614     15.90106     15.63868        -0.064205      0.004222     -0.016253
Au     15.84889     17.34162     17.35712        -0.023111     -0.007663      0.076155
Au     13.19554     16.52254     17.35609         0.009714     -0.010854      0.047219
Au     11.42189     14.82547     16.10575         0.138893     -0.002795      0.030763
Au     13.91929     18.94932     16.10867        -0.025690     -0.043065     -0.007499
Au     15.27348     14.60396     17.29980         0.005738      0.045305     -0.066729
Au     13.61690     13.31446     15.40520         0.003192     -0.036164      0.037123
Au     16.35738     13.45138     14.99226        -0.005929     -0.067760      0.038200
