19
# total energy = -47.31399684 eVAu     13.96915     13.95161     13.26142        -0.011053     -0.019869      0.018554
Au     11.22083     14.37060     12.94330         0.035513     -0.008836      0.001975
Au     16.57239     18.57358     11.89085        -0.111294      0.018098      0.006387
Au     15.57164     15.93408     12.03042         0.017966     -0.056785     -0.014057
Au     17.23161     16.97033     14.07744        -0.053024     -0.009191     -0.001082
Au     11.55400     17.22964     13.33067        -0.015875      0.019540     -0.003456
Au     12.89986     15.82917     11.33929         0.084977     -0.037839     -0.036833
Au     16.61821     14.27581     14.07661        -0.013690      0.061923      0.009386
Au     13.86701     18.28592     12.26100        -0.030288     -0.025827     -0.004425
Au     11.81717     17.22772     16.25191        -0.020456     -0.021458      0.019755
Au     14.15763     16.51374     14.58934         0.132309     -0.006131     -0.014786
Au     15.54925     19.11508     14.48872         0.036359      0.046971     -0.079841
Au     16.24568     16.13846     16.45723        -0.003542     -0.092481      0.023325
Au     14.33505     18.32738     16.83760         0.022531     -0.012363      0.047206
Au     13.76066     15.70480     17.62786        -0.028217      0.048877     -0.032342
Au      9.85434     15.78647     14.91086         0.121654      0.037986     -0.012767
Au     12.80763     19.33127     14.65500        -0.031177      0.011857      0.102371
Au     14.85399     13.67310     16.05067         0.017328      0.024781     -0.016465
Au     12.30062     14.47693     15.52022        -0.150021      0.020749     -0.012904
