19
# total energy = -47.48324607 eVAu     14.64410     13.50135     12.66237         0.047745      0.070206      0.044268
Au     12.28926     14.77616     13.48922         0.024205      0.028080      0.034533
Au     16.32809     17.90659     12.08997         0.000287     -0.015900      0.029276
Au     16.76459     15.25049     12.90617        -0.070451     -0.022405      0.040802
Au     18.55182     17.20842     13.71894        -0.017319      0.012271     -0.022959
Au     11.72301     17.21115     12.24384         0.027211     -0.014401      0.032629
Au     14.23806     16.10844     11.77766         0.010151     -0.003562      0.051759
Au     13.91434     18.58392     13.28053         0.016333     -0.043321      0.027144
Au     11.95861     17.30761     15.02620         0.032990     -0.039276     -0.007489
Au     14.55264     16.09349     14.69482         0.033033      0.024595     -0.031837
Au     16.34685     18.45260     14.84959        -0.069552     -0.039930      0.028413
Au     17.26780     15.81867     15.73053        -0.023055      0.006594     -0.016386
Au     15.84495     17.43602     17.43351        -0.022266     -0.018367     -0.073824
Au     13.16388     16.91876     17.62470        -0.046163      0.010669     -0.009906
Au     12.13096     14.79977     16.30463         0.008551      0.028376     -0.038496
Au     13.92027     19.04103     16.02523         0.068204     -0.061328     -0.034380
Au     14.95467     14.70815     17.06179         0.052433      0.018082     -0.010595
Au     13.68851     12.89873     15.18403        -0.046391     -0.008959     -0.021459
Au     16.37851     13.34100     14.94837        -0.025944      0.068576     -0.021494
