19
# total energy = -47.28635514 eVAu     13.97592     13.91663     13.31949         0.009009      0.018780     -0.050715
Au     11.25143     14.38213     12.92843         0.012238      0.015350      0.048136
Au     16.52284     18.61167     11.89729        -0.020639     -0.013809     -0.004731
Au     15.57663     15.90466     12.04796         0.032327      0.031616     -0.004259
Au     17.34635     16.91728     13.95650        -0.023671      0.044836      0.048861
Au     11.51745     17.29375     13.24931        -0.023603     -0.060174      0.045824
Au     12.95244     15.81091     11.34162        -0.024758     -0.013212     -0.007185
Au     16.64812     14.26495     14.08138        -0.009049     -0.016233      0.008171
Au     13.85316     18.30084     12.26878         0.025963      0.002953     -0.005678
Au     11.78215     17.20405     16.31976         0.005112      0.015671     -0.032343
Au     14.05135     16.51500     14.56339         0.009399     -0.035693     -0.000501
Au     15.58766     18.95622     14.55696        -0.010076      0.024195     -0.021277
Au     16.21084     16.25377     16.33942         0.011762     -0.026673      0.019264
Au     14.27560     18.35895     16.92552         0.076772     -0.008209     -0.000682
Au     13.78710     15.71931     17.61862        -0.035580      0.020090      0.020322
Au      9.88670     15.83683     14.86216         0.007133     -0.017611     -0.017307
Au     12.82083     19.27708     14.72067        -0.005340      0.032257     -0.016103
Au     14.87467     13.72693     16.05695        -0.014352     -0.026907     -0.025498
Au     12.26550     14.46473     15.54620        -0.022646      0.012771     -0.004297
