19
# total energy = -42.72367233 eVAu     13.70026     12.20611     13.95273         0.101153      0.035075     -0.164244
Au     12.17082     19.70288     13.95254        -0.020433     -0.103860     -0.163353
Au     19.42704     17.27865     13.95241        -0.081079      0.070345     -0.162984
Au     11.44916     16.67985     13.08423        -0.150235      0.266143     -0.013607
Au     17.17108     19.41461     13.08438         0.305251     -0.004368     -0.011724
Au     16.67781     13.09209     13.08505        -0.155420     -0.262699     -0.012422
Au     17.58228     15.31415     14.28321        -0.004058      0.224863     -0.155395
Au     12.92140     14.78611     14.28248         0.199018     -0.110742     -0.154203
Au     14.79445     19.08666     14.28215        -0.192377     -0.116701     -0.155831
Au     16.49846     20.58533     15.73887        -0.101153     -0.035075      0.164244
Au     18.02790     13.08856     15.73906         0.020433      0.103860      0.163353
Au     10.77168     15.51279     15.73919         0.081079     -0.070345      0.162984
Au     15.09936     16.39572     14.84580         0.000000      0.000000      0.000000
Au     18.74956     16.11159     16.60737         0.150235     -0.266143      0.013607
Au     13.02764     13.37680     16.60722        -0.305251      0.004368      0.011724
Au     13.52091     19.69932     16.60655         0.155420      0.262699      0.012422
Au     12.61647     17.47729     15.40839         0.004058     -0.224863      0.155395
Au     17.27732     18.00533     15.40912        -0.199018      0.110742      0.154203
Au     15.40427     13.70475     15.40945         0.192377      0.116701      0.155831
