19
# total energy = -47.33868864 eVAu     15.14712     15.18694     15.30542         0.063743     -0.032481     -0.034987
Au     15.24893     13.07117     13.38352        -0.053246     -0.008293      0.031044
Au     16.91739     17.21804     14.08913         0.031593      0.003892     -0.002927
Au     17.67971     14.50916     13.72027         0.006321      0.005559     -0.007744
Au     19.46595     16.33011     14.86813        -0.006920     -0.017473     -0.037385
Au     13.12269     15.06015     13.30293        -0.014035      0.070247      0.009980
Au     15.61834     15.54350     12.14103         0.018368      0.019511      0.063407
Au     14.29566     17.62695     13.45175        -0.015174      0.042574      0.032434
Au     12.59041     17.13068     15.52132         0.007807     -0.071914     -0.035070
Au     17.93360     17.87322     16.61766        -0.039484     -0.030436     -0.007876
Au     17.90846     14.95862     16.60797        -0.021070      0.007353      0.012097
Au     16.39682     16.48069     18.41161        -0.032881     -0.002559     -0.019531
Au     13.75438     15.97630     17.82413        -0.006177      0.009633     -0.065069
Au     12.41557     14.38343     15.84495         0.003014     -0.048075      0.021485
Au     13.13438     13.25973     18.30690         0.059194      0.011357     -0.026171
Au     15.16639     17.90888     16.23372         0.010718      0.005955      0.026066
Au     15.77404     13.81419     17.84298        -0.002542      0.019539     -0.033885
Au     14.27308     12.31639     15.89033        -0.042083      0.030055      0.017886
Au     16.97791     12.55514     15.55777         0.032854     -0.014443      0.056246
