19
# total energy = -43.51158237 eVAu     13.88723     12.29704     13.80585         0.097267      0.112599      0.204462
Au     12.15703     19.49650     13.80596         0.045088     -0.150188      0.203963
Au     19.25468     17.39441     13.80563        -0.144731      0.029264      0.204502
Au     11.37842     16.87531     13.27192         0.011989     -0.079680      0.206789
Au     17.37717     19.37696     13.27258        -0.083909      0.036643      0.203950
Au     16.54289     12.93274     13.27316         0.070983      0.052252      0.206685
Au     17.49370     15.36992     14.03089         0.055367     -0.271737      0.068939
Au     13.01460     14.83476     14.02982        -0.262140      0.086283      0.066055
Au     14.79061     18.98090     14.02917         0.207374      0.187544      0.068202
Au     16.31149     20.49440     15.88575        -0.097267     -0.112599     -0.204462
Au     18.04169     13.29494     15.88564        -0.045088      0.150188     -0.203963
Au     10.94404     15.39703     15.88597         0.144731     -0.029264     -0.204502
Au     15.09936     16.39572     14.84580        -0.000000     -0.000000      0.000000
Au     18.82030     15.91613     16.41968        -0.011989      0.079680     -0.206789
Au     12.82155     13.41445     16.41902         0.083909     -0.036643     -0.203950
Au     13.65583     19.85867     16.41844        -0.070983     -0.052252     -0.206685
Au     12.70505     17.42152     15.66071        -0.055367      0.271737     -0.068939
Au     17.18412     17.95668     15.66178         0.262140     -0.086283     -0.066055
Au     15.40811     13.81051     15.66243        -0.207374     -0.187544     -0.068202
