19
# total energy = -47.35660869 eVAu     15.17399     15.18482     15.26658        -0.005555      0.007836      0.048749
Au     15.19704     13.05943     13.40708         0.002077      0.026496      0.008396
Au     16.93618     17.23274     14.08630        -0.010007     -0.003273     -0.012826
Au     17.67671     14.47522     13.73522        -0.010410      0.021703     -0.037014
Au     19.46635     16.31952     14.83328         0.041445      0.001790     -0.024086
Au     13.09868     15.14315     13.28854        -0.013228      0.018567      0.043977
Au     15.62363     15.55354     12.19791        -0.024420      0.006513      0.006730
Au     14.31531     17.69187     13.47776         0.019842      0.022191     -0.034763
Au     12.58780     17.07375     15.49030        -0.024388     -0.001516     -0.029191
Au     17.92475     17.84957     16.60923        -0.010921      0.001543      0.048182
Au     17.90956     14.97638     16.59575        -0.061563     -0.039073      0.063370
Au     16.36611     16.49395     18.42463         0.027486     -0.010545     -0.051269
Au     13.73853     15.97985     17.79641        -0.003549     -0.027890     -0.031382
Au     12.43804     14.33147     15.81971         0.020543     -0.009271     -0.003794
Au     13.16872     13.27154     18.31793        -0.025908     -0.009800     -0.003271
Au     15.15032     17.91089     16.24624         0.030439     -0.010480     -0.022279
Au     15.78278     13.83252     17.83157         0.034508      0.022351     -0.024891
Au     14.28214     12.28602     15.91548         0.004601     -0.040903      0.030065
Au     16.98420     12.53708     15.58157         0.009008      0.023761      0.025295
