19
# total energy = -47.48748840 eVAu     14.64680     13.50782     12.66302         0.030402      0.032267      0.032985
Au     12.29431     14.77679     13.49563         0.003768      0.012565      0.022355
Au     16.32717     17.90688     12.08899         0.007684     -0.012778      0.026752
Au     16.76394     15.25020     12.91061        -0.033973     -0.006728      0.008045
Au     18.54928     17.20885     13.71731        -0.005497      0.010616     -0.016405
Au     11.72565     17.20760     12.25065         0.005164     -0.005763      0.013792
Au     14.23839     16.10943     11.77783         0.007584      0.000771      0.016755
Au     13.91475     18.58378     13.27940         0.012143     -0.015303      0.006765
Au     11.96447     17.30270     15.02919         0.008141     -0.025459     -0.001204
Au     14.56015     16.10079     14.68448         0.018773      0.010416     -0.011837
Au     16.34650     18.44867     14.85167        -0.033402     -0.012839      0.003106
Au     17.26259     15.81713     15.73168         0.040022      0.015621     -0.015295
Au     15.83700     17.42885     17.42692        -0.019215     -0.001180     -0.028629
Au     13.15432     16.93032     17.63379        -0.050125      0.011783      0.000210
Au     12.15178     14.80060     16.30789        -0.022659      0.014699     -0.024257
Au     13.92430     19.03805     16.01999         0.041833     -0.035214     -0.008402
Au     14.94800     14.71208     17.05503         0.054909      0.002677      0.009016
Au     13.68214     12.88348     15.17724        -0.044260     -0.016821     -0.018450
Au     16.36935     13.34832     14.95077        -0.021293      0.020671     -0.015302
