19
# total energy = -47.40345088 eVAu     14.66223     13.47728     12.75441         0.007013      0.021405     -0.009959
Au     12.30911     14.81898     13.45880        -0.067561     -0.022393     -0.016007
Au     16.30464     17.94712     12.02286         0.011232      0.036115     -0.063120
Au     16.76648     15.29320     12.89676        -0.025360     -0.058842      0.038720
Au     18.54881     17.31175     13.55126         0.097198     -0.014377      0.044312
Au     11.75412     17.23684     12.21111        -0.063938      0.026944     -0.060311
Au     14.26532     16.08201     11.87705         0.022855      0.008078     -0.091075
Au     13.94697     18.51648     13.35525         0.010843      0.080579     -0.051592
Au     11.98297     17.31608     14.97497        -0.072698      0.009146      0.014578
Au     14.64758     15.99435     14.87920        -0.080168      0.068535     -0.131184
Au     16.35325     18.44106     14.80948        -0.026970     -0.012006      0.072782
Au     17.44484     15.88805     15.65436        -0.083863     -0.017236      0.016980
Au     15.84904     17.36376     17.38104        -0.016589     -0.031183      0.002513
Au     13.16195     16.63805     17.43087         0.080319     -0.075589      0.031018
Au     11.55117     14.81980     16.14291         0.158849     -0.005437      0.045501
Au     13.94244     18.97170     16.09437         0.008442     -0.000324     -0.019718
Au     15.19009     14.63224     17.23737        -0.002916     -0.035158      0.055579
Au     13.61460     13.19246     15.33553         0.064338      0.016788      0.093894
Au     16.36528     13.42111     14.98449        -0.021025      0.004956      0.027090
