19
# total energy = -46.81317628 eVAu     17.89425     17.18975     12.75444         0.382504      0.311871     -0.226123
Au     18.54128     14.60120     11.91857         0.206988     -0.120531     -0.199012
Au     16.12775     13.35769     12.38502         0.000193     -0.452261     -0.284630
Au     13.60499     16.24371     11.79082        -0.296616      0.042499     -0.442853
Au     16.19399     15.73121     11.02294         0.012343     -0.018373     -0.533660
Au     13.53881     13.87031     13.15292        -0.308795     -0.391161     -0.193569
Au     15.49031     18.22597     11.90489        -0.028116      0.409782     -0.368543
Au     13.62432     14.87390     15.79891        -0.324769     -0.231387      0.368423
Au     17.80664     14.04586     14.55869         0.363583     -0.368789      0.163500
Au     11.86143     15.92392     13.89949        -0.308075     -0.017213     -0.046175
Au     15.59888     15.81075     13.88359        -0.039967     -0.056290     -0.098755
Au     15.34188     12.89149     14.96620        -0.053178     -0.522890      0.165767
Au     13.71190     18.01802     13.99475        -0.307486      0.448636     -0.023322
Au     15.10604     17.25597     16.37790         0.011036      0.218505      0.383361
Au     12.34151     17.26546     16.26037        -0.163188      0.150969      0.255909
Au     16.23446     14.78984     16.70837         0.124174     -0.161332      0.528560
Au     16.34427     18.73585     14.44388         0.144927      0.532532      0.130486
Au     17.80093     16.72232     15.57882         0.269603      0.168280      0.306211
Au     19.88317     15.77203     14.02384         0.314839      0.057152      0.114425
