19
# total energy = -47.40194456 eVAu     14.88416     14.18459     11.81429         0.011661      0.014943      0.000782
Au     12.20613     14.87367     11.86828         0.019417     -0.006650      0.009509
Au     15.96854     18.70753     10.86287        -0.027674     -0.008689      0.006362
Au     16.68205     16.20049     11.92337        -0.026893     -0.025125      0.000067
Au     18.47898     18.29683     12.07555        -0.006723     -0.003074      0.002962
Au     11.64709     17.55333     11.83119         0.012373     -0.016252      0.025507
Au     14.07463     16.69262     10.73620         0.004407      0.021386      0.010154
Au     13.72733     19.35083     12.35468         0.008356     -0.014824     -0.015468
Au     11.69201     18.80829     14.26337         0.016892      0.000575      0.014992
Au     14.27127     16.83651     13.57235         0.057557      0.019906     -0.023974
Au     16.31415     19.01782     13.63778        -0.032424      0.004674      0.023707
Au     17.88491     16.80849     14.39349        -0.023836     -0.009994      0.010527
Au     15.69060     17.40257     15.97289         0.012020     -0.014920     -0.012223
Au     12.90485     17.60773     16.49995        -0.001491      0.015904     -0.015372
Au     11.80748     15.97990     14.45070        -0.031540     -0.012525      0.010057
Au     14.16783     19.66405     15.15016         0.017615     -0.004621     -0.011496
Au     14.07797     15.14139     16.31537        -0.017054      0.010493     -0.025884
Au     13.41924     13.66970     14.10234         0.002735      0.008661     -0.019098
Au     16.03778     14.74704     14.35671         0.004600      0.020133      0.008889
