19
# total energy = -47.25720493 eVAu     14.56340     12.77296     13.62452        -0.000382      0.006218     -0.005460
Au     12.24120     14.12480     14.31264        -0.014786     -0.002149      0.006807
Au     16.58032     16.78351     12.49025         0.008520     -0.016114     -0.015997
Au     16.89749     14.25370     13.55549         0.001055      0.013582     -0.002224
Au     18.66695     16.32209     14.25061        -0.006334      0.007408      0.007337
Au     12.04712     16.82376     13.64287        -0.012139      0.002808      0.015155
Au     14.20654     15.36548     12.64387         0.010624      0.007054     -0.003541
Au     14.42781     18.17460     13.44336         0.002770     -0.005001      0.005275
Au     11.17887     16.17097     16.15642         0.011064      0.001697      0.008432
Au     14.80220     14.98646     15.44603         0.000235     -0.009530     -0.002213
Au     16.35349     17.47847     15.34047         0.007822      0.016951     -0.018100
Au     17.51003     15.04917     16.42795         0.021343     -0.008200      0.000922
Au     15.48845     16.50364     17.78505         0.008280      0.011591      0.020833
Au     13.11237     15.09919     17.81567        -0.009549     -0.007140     -0.015828
Au     11.07601     13.47388     16.78072        -0.004852     -0.008309     -0.015870
Au     13.58019     17.54263     16.02981        -0.011290     -0.005837     -0.009115
Au     15.54353     13.71209     18.03150        -0.000745      0.003206      0.016189
Au     13.62459     12.49499     16.28450        -0.008806     -0.001276      0.011061
Au     16.43325     12.49617     15.69195        -0.002829     -0.006960     -0.003662
