19
# total energy = -47.33443312 eVAu     18.39487     18.93063     12.38277         0.024757      0.019712     -0.023429
Au     19.31740     14.43454     12.70387         0.017323      0.005971     -0.014969
Au     13.61045     16.93973     14.07962        -0.043147      0.002934      0.092941
Au     16.64163     13.86705     12.77229        -0.022221     -0.017729     -0.020562
Au     14.84541     15.83395     11.80027        -0.032666      0.031451     -0.035100
Au     17.54729     16.36590     11.74208         0.014852     -0.026569      0.051051
Au     14.10279     14.15239     13.86256        -0.035676     -0.015242      0.060990
Au     19.31358     16.89156     14.02752        -0.037811     -0.042532     -0.017684
Au     15.70183     18.30710     12.73834         0.025391      0.007240     -0.074760
Au     14.27077     15.30415     16.40373        -0.017747     -0.027192      0.020365
Au     18.63688     14.46070     15.35381         0.015807     -0.005246      0.031315
Au     16.33515     16.11674     14.62182         0.112167     -0.080700     -0.068612
Au     16.13779     13.15018     15.45668         0.021834      0.132011     -0.047800
Au     14.74423     19.31330     15.11577        -0.123696      0.016951      0.091821
Au     15.91315     17.62512     17.05896        -0.099860     -0.014448      0.020832
Au     13.08332     17.78104     16.75195         0.151089     -0.030965     -0.109473
Au     16.85281     14.97089     17.42124        -0.062728     -0.022689      0.024019
Au     17.45250     18.82822     15.00357         0.075488      0.022217     -0.010257
Au     18.62739     16.95976     16.69408         0.016843      0.044827      0.029311
