19
# total energy = -42.94304714 eVAu     13.73104     12.24877     13.90804         0.358591     -0.129555     -0.081799
Au     12.19256     19.65543     13.90788        -0.289858     -0.247275     -0.080330
Au     19.37489     17.28379     13.90766        -0.070468      0.374664     -0.080747
Au     11.43193     16.72930     13.14573        -0.088812      0.215284      0.002336
Au     17.22314     19.40436     13.14608         0.230463     -0.031362      0.001560
Au     16.64317     13.05234     13.14675        -0.141937     -0.185403      0.001124
Au     17.57281     15.36195     14.20785        -0.224130     -0.272992     -0.127026
Au     12.96764     14.77028     14.20720        -0.123254      0.331702     -0.129600
Au     14.75795     19.05423     14.20684         0.346644     -0.059096     -0.130991
Au     16.46768     20.54267     15.78356        -0.358591      0.129555      0.081799
Au     18.00616     13.13601     15.78372         0.289858      0.247275      0.080330
Au     10.82383     15.50765     15.78394         0.070468     -0.374664      0.080747
Au     15.09936     16.39572     14.84580         0.000000      0.000000     -0.000000
Au     18.76679     16.06214     16.54587         0.088812     -0.215284     -0.002336
Au     12.97558     13.38705     16.54552        -0.230463      0.031362     -0.001560
Au     13.55555     19.73907     16.54485         0.141937      0.185403     -0.001124
Au     12.62594     17.42949     15.48375         0.224130      0.272992      0.127026
Au     17.23108     18.02116     15.48440         0.123254     -0.331702      0.129600
Au     15.44077     13.73718     15.48476        -0.346644      0.059096      0.130991
