19
# total energy = -47.04965179 eVAu     17.94393     17.25786     12.71442        -0.008094      0.055731     -0.003438
Au     18.52837     14.61125     11.93577        -0.036406     -0.013887     -0.025726
Au     16.12541     13.29659     12.36239        -0.016252      0.023986     -0.056142
Au     13.57519     16.26093     11.73500        -0.011259     -0.061148     -0.005564
Au     16.19369     15.74246     10.95808        -0.016502     -0.058539     -0.007080
Au     13.50660     13.81376     13.13862        -0.010537      0.027693     -0.053862
Au     15.48934     18.25838     11.87909        -0.017683      0.061233     -0.100394
Au     13.58528     14.82008     15.86399         0.020157     -0.038747      0.034855
Au     17.85206     13.97539     14.59891        -0.006877     -0.032504      0.045195
Au     11.88346     15.92743     13.90585         0.013895     -0.024490     -0.038280
Au     15.58305     15.78840     13.84450        -0.010429     -0.012442     -0.027174
Au     15.33887     12.85248     14.98110        -0.024370     -0.115353      0.001934
Au     13.67615     18.10330     13.98011         0.024334      0.048663     -0.013619
Au     15.12524     17.26736     16.39852         0.001246     -0.023819     -0.044427
Au     12.36060     17.27749     16.28272         0.008772      0.062310      0.111103
Au     16.24107     14.75797     16.75122         0.021438      0.007687      0.077194
Au     16.35330     18.78903     14.43772         0.025112      0.058251      0.046581
Au     17.80083     16.73773     15.60547        -0.032059     -0.016994     -0.034886
Au     19.88437     15.78736     14.05092         0.075515      0.052367      0.093729
