19
# total energy = -47.37775030 eVAu     14.91918     14.23845     11.82505        -0.095655     -0.131173     -0.018823
Au     12.22391     14.88775     11.87260         0.012801      0.008643      0.048084
Au     16.00586     18.74119     10.81454         0.016968      0.015236     -0.018814
Au     16.64985     16.27789     11.98206         0.104367      0.030401     -0.040224
Au     18.52617     18.31441     12.05943        -0.086926     -0.029659      0.030411
Au     11.61932     17.55429     11.82155         0.000896     -0.007489      0.012235
Au     14.08471     16.73963     10.76864        -0.031420      0.005931     -0.057077
Au     13.74939     19.30243     12.32884        -0.035141      0.041901     -0.035655
Au     11.71147     18.80119     14.25368         0.022474     -0.044487      0.019110
Au     14.12424     16.78432     13.62499         0.072875      0.025890     -0.025649
Au     16.30339     18.92719     13.59442         0.103785      0.039624     -0.034350
Au     17.95300     16.81198     14.40361         0.028245      0.001864      0.003187
Au     15.70466     17.36529     15.93284         0.017797     -0.012823      0.062278
Au     12.92038     17.60355     16.48226        -0.015884     -0.009525     -0.049573
Au     11.68652     15.93797     14.49264         0.018777      0.005902     -0.006794
Au     14.21223     19.63765     15.11126        -0.122356      0.055936      0.096476
Au     14.06996     15.12596     16.33935        -0.011611      0.005873     -0.010656
Au     13.43275     13.68991     14.10027        -0.021163      0.044200     -0.015346
Au     16.04001     14.80234     14.37350         0.021171     -0.046247      0.041180
