19
# total energy = -47.37008869 eVAu     14.90996     14.24642     11.83435         0.022666     -0.075768     -0.053163
Au     12.22688     14.88637     11.87865        -0.038977      0.002869     -0.004006
Au     16.02973     18.75602     10.79557        -0.078722     -0.025110      0.026136
Au     16.64781     16.29477     11.99243         0.018062     -0.046483     -0.035738
Au     18.52819     18.31495     12.05858        -0.006707     -0.001600      0.002515
Au     11.61991     17.54383     11.83897        -0.024096      0.015853     -0.030616
Au     14.08489     16.75306     10.76858         0.023638      0.006606     -0.032172
Au     13.75189     19.29682     12.31712         0.021601      0.028935     -0.019185
Au     11.71487     18.79699     14.25839        -0.037125     -0.005726     -0.009146
Au     14.09728     16.77510     13.63474         0.150343      0.051996     -0.054769
Au     16.30559     18.90999     13.58402         0.005828      0.055171      0.027200
Au     17.98656     16.81722     14.40234        -0.078330     -0.028237      0.030590
Au     15.71194     17.35452     15.93043         0.039741      0.013452      0.009696
Au     12.91790     17.60521     16.47585        -0.020636     -0.024613      0.024459
Au     11.66821     15.93158     14.49898        -0.028641     -0.009407      0.010023
Au     14.20581     19.62418     15.10745         0.000376      0.084529      0.044177
Au     14.05468     15.13138     16.32702         0.010676     -0.020096      0.035404
Au     13.42981     13.69433     14.09563        -0.020562     -0.014943      0.030703
Au     16.04509     14.81064     14.38243         0.040865     -0.007428     -0.002107
