19
# total energy = -47.47873259 eVAu     14.64835     13.50153     12.67081        -0.015451      0.011082      0.014901
Au     12.28246     14.78099     13.48145         0.029265      0.009350      0.017001
Au     16.33038     17.90229     12.09895         0.009405      0.000491     -0.003663
Au     16.75022     15.24613     12.90463         0.039551      0.053774      0.043847
Au     18.55407     17.21015     13.71769        -0.058679      0.003967     -0.021558
Au     11.72276     17.21651     12.23469         0.028649     -0.009907      0.025578
Au     14.23955     16.10520     11.78896        -0.015981      0.018448      0.018870
Au     13.91703     18.57447     13.28942        -0.015421     -0.025742     -0.009421
Au     11.95185     17.31065     15.01724         0.032349     -0.012119      0.002384
Au     14.54185     16.08131     14.71274         0.040170      0.013084     -0.011836
Au     16.33196     18.45312     14.85096         0.051556     -0.055314     -0.018442
Au     17.27523     15.82389     15.72402        -0.055282     -0.003915     -0.007012
Au     15.85923     17.44928     17.43283        -0.039251     -0.064294     -0.038370
Au     13.17667     16.89308     17.60034        -0.014641      0.007021      0.006757
Au     12.08228     14.80417     16.28798         0.064549      0.007472     -0.005442
Au     13.92590     19.03439     16.03019        -0.011872     -0.024274     -0.004699
Au     14.98274     14.70270     17.07584        -0.000945      0.029959     -0.041167
Au     13.69350     12.93376     15.19568        -0.019772     -0.013402     -0.001329
Au     16.39489     13.33871     14.93769        -0.048198      0.054319      0.033602
