19
# total energy = -47.40781763 eVAu     14.89023     14.18449     11.81001        -0.016376     -0.013958      0.001326
Au     12.20576     14.83726     11.85461         0.018244     -0.006758     -0.011297
Au     15.94617     18.69176     10.88470        -0.005583     -0.010225      0.014635
Au     16.70278     16.16967     11.89498         0.008654      0.019392      0.005259
Au     18.46534     18.29168     12.08070        -0.004044     -0.001386      0.000677
Au     11.66261     17.51488     11.89930        -0.005172      0.005364     -0.011066
Au     14.06084     16.68300     10.72409        -0.004908     -0.003935      0.018432
Au     13.71038     19.36419     12.35593        -0.002876     -0.016698      0.012232
Au     11.68375     18.83702     14.29069         0.012598      0.016143      0.000118
Au     14.34987     16.86517     13.54293         0.005463      0.002488     -0.003233
Au     16.32601     19.05879     13.65472         0.012404     -0.010525     -0.013389
Au     17.85051     16.80341     14.39208        -0.014722      0.003678     -0.008618
Au     15.68390     17.40420     15.99188        -0.016549     -0.002650     -0.009858
Au     12.89198     17.64017     16.51940         0.013898      0.014833      0.002050
Au     11.85701     15.99728     14.43309         0.014669      0.005006     -0.005681
Au     14.17479     19.66715     15.14906        -0.018164      0.004630      0.013677
Au     14.02712     15.16770     16.26049         0.004221     -0.006622      0.014585
Au     13.41534     13.63705     14.08117         0.014759     -0.004934     -0.014179
Au     16.03261     14.72852     14.36172        -0.016521      0.006159     -0.005670
