19
# total energy = -47.07460799 eVAu     14.06170     13.83319     13.20295        -0.000946      0.106384     -0.046986
Au     11.33077     14.42097     13.10313         0.023135     -0.043043     -0.039129
Au     16.59617     18.61117     11.97892        -0.036542      0.029629     -0.113254
Au     15.62110     16.03660     12.18790         0.005257     -0.088687     -0.089028
Au     17.72312     16.94738     13.93406        -0.033091      0.012166     -0.049939
Au     11.37987     17.34137     13.25528         0.147183      0.043434      0.058046
Au     12.98134     15.86394     11.47688         0.021732     -0.024648     -0.064535
Au     16.70188     14.38184     14.12157         0.004199     -0.065307     -0.033270
Au     13.85492     18.37016     12.25095        -0.055046     -0.066312     -0.025313
Au     11.69114     17.31257     16.18892         0.171591     -0.094127      0.177427
Au     13.78789     16.33538     14.51585         0.067022      0.067755      0.030785
Au     15.61278     18.69961     14.54008        -0.022913      0.074071      0.130725
Au     16.19721     16.34520     16.14981        -0.133992     -0.079492      0.084484
Au     14.23543     18.33221     16.89207        -0.067909      0.015902     -0.123424
Au     13.85150     15.71664     17.55094        -0.188901      0.000228     -0.120303
Au      9.77897     15.75757     14.96578         0.032068      0.039903     -0.043232
Au     12.87840     19.33179     14.63318        -0.009593     -0.123373      0.097153
Au     14.78244     13.70677     15.90443        -0.001166      0.064367      0.131413
Au     12.12011     14.37133     15.74774         0.077911      0.131148      0.038378
