19
# total energy = -47.44822621 eVAu     14.66065     13.51489     12.73328        -0.012515     -0.011919     -0.028304
Au     12.28348     14.80087     13.45310         0.020356     -0.005747     -0.000960
Au     16.33252     17.94281     12.03418        -0.024265     -0.010673      0.011203
Au     16.74164     15.29486     12.92515         0.003409     -0.009444     -0.001965
Au     18.55453     17.26038     13.63715         0.029081     -0.005733      0.013365
Au     11.73298     17.23345     12.21093        -0.011980      0.003913     -0.010644
Au     14.25410     16.11188     11.81636         0.003525     -0.010925      0.025632
Au     13.93491     18.55092     13.29904         0.003215     -0.017696      0.022500
Au     11.95239     17.32609     14.98685         0.017716      0.007559      0.007198
Au     14.53771     16.02007     14.81302        -0.000590      0.038732     -0.065211
Au     16.33346     18.41139     14.81881         0.000154      0.009599      0.006477
Au     17.34251     15.85335     15.69078        -0.040019     -0.015474      0.014679
Au     15.86716     17.40420     17.42448        -0.031092     -0.012847     -0.012033
Au     13.18687     16.75619     17.52661         0.019310      0.001818      0.003732
Au     11.83462     14.81441     16.21446         0.071990     -0.006137      0.024530
Au     13.94562     18.97487     16.05082        -0.017013      0.030661     -0.006351
Au     15.09979     14.66496     17.16307        -0.013891      0.000621     -0.004077
Au     13.67031     13.05869     15.28102         0.020539      0.003534      0.000949
Au     16.39565     13.36806     14.97299        -0.037932      0.010159     -0.000721
