19
# total energy = -43.67126799 eVAu     13.91274     12.30800     13.88225        -0.023648      0.028068     -0.056767
Au     12.15235     19.46666     13.88065         0.039503      0.010947     -0.054412
Au     19.23244     17.41176     13.88209        -0.008063     -0.032815     -0.058434
Au     11.25825     16.88591     13.38090         0.003790     -0.032893      0.031581
Au     17.44439     19.47773     13.38097        -0.030342      0.009120      0.034576
Au     16.59619     12.82283     13.38164         0.024571      0.027789      0.038634
Au     17.47793     15.32972     13.99594         0.000829     -0.003779     -0.056009
Au     12.98648     14.86938     13.99545         0.004157     -0.010115     -0.054955
Au     14.83370     18.98854     13.99515        -0.009265      0.002242     -0.053012
Au     16.28598     20.48344     15.80935         0.023648     -0.028068      0.056767
Au     18.04637     13.32478     15.81095        -0.039503     -0.010947      0.054412
Au     10.96628     15.37968     15.80951         0.008063      0.032815      0.058434
Au     15.09936     16.39572     14.84580         0.000000      0.000000      0.000000
Au     18.94047     15.90553     16.31070        -0.003790      0.032893     -0.031581
Au     12.75433     13.31368     16.31063         0.030342     -0.009120     -0.034576
Au     13.60253     19.96858     16.30996        -0.024571     -0.027789     -0.038634
Au     12.72082     17.46172     15.69566        -0.000829      0.003779      0.056009
Au     17.21224     17.92206     15.69615        -0.004157      0.010115      0.054955
Au     15.36502     13.80287     15.69645         0.009265     -0.002242      0.053012
