19
# total energy = -47.44171285 eVAu     14.66442     13.51601     12.74325         0.001292     -0.042240     -0.045118
Au     12.29643     14.80258     13.45259        -0.046236     -0.003981     -0.005598
Au     16.32689     17.94938     12.02208         0.012175      0.010388     -0.015127
Au     16.73665     15.30784     12.92738         0.042772     -0.038246      0.000094
Au     18.55583     17.27351     13.61570         0.017135     -0.025040      0.042749
Au     11.74260     17.23413     12.21246        -0.038994      0.007392     -0.023134
Au     14.26050     16.11108     11.82200        -0.020439     -0.014137     -0.018061
Au     13.94133     18.54851     13.30329        -0.025266      0.017776     -0.001521
Au     11.96532     17.32798     14.98622        -0.045803     -0.004030      0.001124
Au     14.54080     16.01623     14.81965         0.026996      0.009243     -0.007919
Au     16.33132     18.40308     14.80733         0.034547      0.024405      0.042732
Au     17.34977     15.85732     15.68576         0.016940      0.010305     -0.010738
Au     15.85927     17.38364     17.41545        -0.003943      0.037919      0.018062
Au     13.18437     16.73163     17.51366         0.008801      0.015713      0.027053
Au     11.79614     14.81393     16.20627         0.036529     -0.001971      0.015844
Au     13.95072     18.96627     16.05428        -0.012683      0.056301      0.020459
Au     15.11301     14.65380     17.18421        -0.022042      0.009641     -0.020700
Au     13.66236     13.08129     15.29521         0.013018     -0.032163      0.003842
Au     16.38318     13.38414     14.98530         0.005202     -0.037275     -0.024044
