19
# total energy = -45.94140981 eVAu     14.52250     12.78024     13.65674        -0.790680     -0.627501     -1.356757
Au     12.32119     14.16214     14.41499        -0.550766     -0.591873     -0.761867
Au     16.64459     16.83519     12.56589         0.365662      0.867899     -1.241074
Au     16.71695     14.43154     13.57988         1.301814     -1.337664     -0.306840
Au     18.63352     16.26100     14.26600         0.997992      0.186168      0.053570
Au     12.16208     16.76327     13.72079        -0.861091      0.305154     -0.797693
Au     14.33388     15.36125     12.73459        -1.004159     -0.021236     -1.227832
Au     14.45339     18.03671     13.48325        -0.045214      1.113525     -0.308888
Au     11.16077     16.04728     16.08165        -0.731701      0.686662      0.454856
Au     14.79105     15.01702     15.41903        -0.075312      0.221461      0.299494
Au     16.34838     17.37543     15.29933         0.301477      0.755804      0.456529
Au     17.48377     15.02403     16.39024         0.612006     -0.170814      0.308161
Au     15.53116     16.50878     17.74092         0.155735      0.977914      0.542307
Au     13.16182     15.09071     17.68650        -0.739351      0.457625      0.849635
Au     11.15565     13.47588     16.79682        -0.844122     -0.724517      0.368786
Au     13.56948     17.37668     16.01961        -0.157981      1.072826      0.473901
Au     15.50278     13.87994     17.96141         0.750741     -1.184086      1.052207
Au     13.65352     12.57518     16.32322        -0.825651     -0.938804      0.381030
Au     16.18733     12.62630     15.61284         2.140602     -1.048544      0.760473
