19
# total energy = -46.73531361 eVAu     12.94074     15.91284     13.03824        -0.015190      0.000000     -0.015190
Au     15.00216     13.85142     13.03824        -0.000000     -0.015190     -0.015190
Au     17.06361     15.91284     13.03824         0.015190      0.000000     -0.015190
Au     15.00216     15.91284     11.21919        -0.000000      0.000000      0.052145
Au     15.00216     17.97429     13.03824        -0.000000      0.015190     -0.015190
Au     12.94074     15.91284     17.16111        -0.015190      0.000000      0.015190
Au     12.94074     13.85142     15.09969        -0.015190     -0.015190      0.000000
Au     11.12166     15.91284     15.09969         0.052145      0.000000      0.000000
Au     15.00216     13.85142     17.16111        -0.000000     -0.015190      0.015190
Au     17.06361     15.91284     17.16111         0.015190      0.000000      0.015190
Au     17.06361     13.85142     15.09969         0.015190     -0.015190      0.000000
Au     18.88266     15.91284     15.09969        -0.052145      0.000000      0.000000
Au     15.00216     12.03234     15.09969        -0.000000      0.052145      0.000000
Au     15.00216     15.91284     18.98019        -0.000000      0.000000     -0.052145
Au     15.00216     15.91284     15.09969        -0.000000      0.000000      0.000000
Au     12.94074     17.97429     15.09969        -0.015190      0.015190      0.000000
Au     15.00216     17.97429     17.16111        -0.000000      0.015190      0.015190
Au     17.06361     17.97429     15.09969         0.015190      0.015190      0.000000
Au     15.00216     19.79334     15.09969        -0.000000     -0.052145      0.000000
