19
# total energy = -47.17215795 eVAu     15.51852     15.27025     15.32935        -0.054967     -0.001450      0.054225
Au     15.41552     13.01140     13.30592        -0.060114     -0.023202     -0.183050
Au     16.98967     17.32652     13.98028        -0.025731     -0.001950     -0.022210
Au     17.79909     14.48963     13.71415         0.012324      0.010661     -0.029764
Au     19.50184     16.38136     14.79953         0.064452     -0.064013     -0.004186
Au     13.24685     14.87779     13.68099        -0.019496     -0.004155     -0.004213
Au     15.61849     15.53921     12.24960         0.030491     -0.095461     -0.067044
Au     14.30410     17.57295     13.49418        -0.128646      0.098418      0.071672
Au     12.53842     17.03496     15.49046         0.033037      0.041416     -0.023508
Au     17.91018     17.82597     16.53433        -0.092516      0.053300      0.114475
Au     18.05724     14.92102     16.65887        -0.054436     -0.070645      0.028306
Au     16.35119     16.42735     18.30497        -0.019956      0.066166      0.034178
Au     13.73773     15.84991     17.69797         0.061534      0.108573     -0.031981
Au     11.86178     14.42125     16.06314         0.122722      0.036395     -0.071411
Au     13.11737     13.19728     18.24259         0.051305     -0.032406      0.072835
Au     15.10867     17.94633     16.21802        -0.001548     -0.071494     -0.002249
Au     15.78710     13.75507     17.87482         0.018355      0.009821     -0.027255
Au     14.07577     12.75876     15.68031        -0.036132     -0.023412      0.009633
Au     16.88131     12.59631     15.60203         0.099324     -0.036561      0.081546
