19
# total energy = -47.24078294 eVAu     15.50231     15.23805     15.32011        -0.031163     -0.043237      0.033945
Au     15.40852     12.97912     13.25687         0.022340     -0.001943     -0.000915
Au     16.94938     17.31107     13.98870        -0.007428     -0.057472      0.025987
Au     17.78155     14.48046     13.69263        -0.096797     -0.011378      0.017563
Au     19.46524     16.32653     14.85179         0.014738      0.050618      0.006681
Au     13.24963     14.90036     13.64252         0.040957      0.008478     -0.072973
Au     15.59784     15.52420     12.22614        -0.006572      0.034990      0.040036
Au     14.26698     17.60625     13.47787         0.009419     -0.024609     -0.002227
Au     12.52810     17.08390     15.48123        -0.012634      0.074603     -0.000897
Au     17.86334     17.83431     16.55861         0.058793      0.002413     -0.024749
Au     18.03812     14.90312     16.68599        -0.116445     -0.010670      0.049002
Au     16.35864     16.46066     18.36858        -0.028798     -0.070048      0.022030
Au     13.74310     15.91678     17.72714         0.036436     -0.025570     -0.032709
Au     11.98689     14.45194     16.02912         0.074336     -0.018417      0.059995
Au     13.19342     13.21655     18.25762        -0.108967     -0.043672      0.077713
Au     15.09497     17.91219     16.23306         0.010484      0.039979     -0.092444
Au     15.80194     13.77996     17.86639         0.088898      0.054193     -0.060738
Au     14.09654     12.71082     15.65806         0.061081     -0.011282      0.013378
Au     16.89432     12.56705     15.59907        -0.008681      0.053024     -0.058679
