19
# total energy = -43.62928685 eVAu     13.89501     12.32143     13.85632         0.060730     -0.076691      0.001259
Au     12.17313     19.47586     13.85525        -0.095953     -0.016324      0.002630
Au     19.22950     17.38955     13.85616         0.039421      0.091828      0.000347
Au     11.32484     16.86706     13.32278        -0.042353      0.025730      0.073368
Au     17.39515     19.42864     13.32347         0.042849      0.026147      0.070757
Au     16.57831     12.89071     13.32444         0.001334     -0.048287      0.071930
Au     17.50444     15.33800     14.01410        -0.108218     -0.067861     -0.022022
Au     12.98015     14.84147     14.01366         0.001403      0.124185     -0.025332
Au     14.81305     19.00779     14.01327         0.107298     -0.062509     -0.023432
Au     16.30371     20.47001     15.83528        -0.060730      0.076691     -0.001259
Au     18.02559     13.31558     15.83635         0.095953      0.016324     -0.002630
Au     10.96922     15.40189     15.83544        -0.039421     -0.091828     -0.000347
Au     15.09936     16.39572     14.84580        -0.000000      0.000000      0.000000
Au     18.87388     15.92438     16.36882         0.042353     -0.025730     -0.073368
Au     12.80357     13.36277     16.36813        -0.042849     -0.026147     -0.070757
Au     13.62041     19.90070     16.36716        -0.001334      0.048287     -0.071930
Au     12.69431     17.45344     15.67750         0.108218      0.067861      0.022022
Au     17.21857     17.94997     15.67794        -0.001403     -0.124185      0.025332
Au     15.38567     13.78362     15.67833        -0.107298      0.062509      0.023432
