19
# total energy = -47.41778575 eVAu     14.67421     13.48639     12.74108        -0.077770      0.019427      0.047531
Au     12.29897     14.80487     13.45670         0.041261      0.062821     -0.040744
Au     16.31347     17.96590     11.99231         0.007559     -0.088618      0.148781
Au     16.75302     15.29592     12.91612         0.044165      0.096044      0.001064
Au     18.57278     17.30056     13.57442        -0.151872     -0.041824      0.035993
Au     11.73674     17.24213     12.19822         0.111955     -0.045140      0.097628
Au     14.26849     16.08540     11.84376        -0.057915      0.092511      0.039768
Au     13.94607     18.54447     13.33509        -0.029370     -0.089663     -0.055160
Au     11.96987     17.32178     14.98782         0.044922      0.022595     -0.080193
Au     14.60594     16.00227     14.85716        -0.090577      0.046251     -0.099524
Au     16.34390     18.42042     14.81533         0.053715     -0.028603     -0.083558
Au     17.40629     15.87770     15.66547        -0.025435      0.001546     -0.020004
Au     15.84396     17.36401     17.39348         0.013583      0.003120      0.031864
Au     13.17061     16.66613     17.47275         0.044347      0.036368     -0.012421
Au     11.65474     14.81577     16.17243         0.055085     -0.011222      0.028231
Au     13.95411     18.98076     16.08255        -0.064315     -0.053734     -0.017881
Au     15.15314     14.63547     17.22468         0.015271     -0.009934      0.008971
Au     13.63200     13.14401     15.33293         0.056081      0.008191     -0.042852
Au     16.36259     13.40835     14.98980         0.009309     -0.020134      0.012506
