19
# total energy = -47.27808700 eVAu     15.44495     15.20568     15.33245        -0.041740     -0.015804     -0.013176
Au     15.40685     12.96604     13.22680        -0.033445      0.043395      0.059433
Au     16.93008     17.27187     14.01351         0.013179      0.017987     -0.000658
Au     17.74326     14.48681     13.69191         0.023279      0.014392     -0.001619
Au     19.44313     16.31312     14.88138         0.016500     -0.001780     -0.015883
Au     13.25208     14.91303     13.59652        -0.022312      0.000210     -0.041449
Au     15.59108     15.53649     12.21528         0.001712     -0.010573     -0.041627
Au     14.25264     17.61155     13.46327        -0.003414     -0.006896     -0.014194
Au     12.51300     17.13904     15.48492         0.008735      0.001936      0.006293
Au     17.86167     17.83282     16.57625         0.032917      0.031174      0.015016
Au     17.99857     14.91188     16.70833         0.000862     -0.014810     -0.026122
Au     16.35423     16.47062     18.40025         0.016458     -0.010632      0.000986
Au     13.77085     15.93743     17.72078        -0.019422      0.000289      0.031751
Au     12.11039     14.47298     16.03047        -0.011304     -0.023807     -0.004037
Au     13.19236     13.20973     18.29807        -0.032815      0.006973     -0.018435
Au     15.10746     17.91667     16.19118         0.014727      0.038777      0.017772
Au     15.79744     13.77995     17.85164        -0.003759     -0.014528      0.021676
Au     14.13934     12.66085     15.67441        -0.006501     -0.063653      0.010357
Au     16.91146     12.56676     15.56409         0.046343      0.007350      0.013915
