19
# total energy = -46.73475544 eVAu     12.93645     15.91284     13.03395         0.021283      0.000000      0.021283
Au     15.00216     13.84713     13.03395        -0.000000      0.021283      0.021283
Au     17.06790     15.91284     13.03395        -0.021283      0.000000      0.021283
Au     15.00216     15.91284     11.21463        -0.000000      0.000000      0.099299
Au     15.00216     17.97858     13.03395        -0.000000     -0.021283      0.021283
Au     12.93645     15.91284     17.16540         0.021283      0.000000     -0.021283
Au     12.93645     13.84713     15.09969         0.021283      0.021283     -0.000000
Au     11.11710     15.91284     15.09969         0.099299      0.000000     -0.000000
Au     15.00216     13.84713     17.16540        -0.000000      0.021283     -0.021283
Au     17.06790     15.91284     17.16540        -0.021283      0.000000     -0.021283
Au     17.06790     13.84713     15.09969        -0.021283      0.021283     -0.000000
Au     18.88722     15.91284     15.09969        -0.099299      0.000000     -0.000000
Au     15.00216     12.02778     15.09969        -0.000000      0.099299     -0.000000
Au     15.00216     15.91284     18.98475        -0.000000      0.000000     -0.099299
Au     15.00216     15.91284     15.09969        -0.000000      0.000000     -0.000000
Au     12.93645     17.97858     15.09969         0.021283     -0.021283     -0.000000
Au     15.00216     17.97858     17.16540        -0.000000     -0.021283     -0.021283
Au     17.06790     17.97858     15.09969        -0.021283     -0.021283     -0.000000
Au     15.00216     19.79790     15.09969        -0.000000     -0.099299     -0.000000
