19
# total energy = -45.31322338 eVAu     14.06248     13.89133     13.24685         0.030758     -0.679730     -0.410439
Au     11.38898     14.51132     13.15838        -0.658923     -1.057793     -0.838145
Au     16.58561     18.56497     12.04742         0.348434      0.645930     -0.840273
Au     15.58262     16.07530     12.28021         0.187922     -0.381000     -0.911309
Au     17.64978     16.93508     13.92055         0.946400      0.116013      0.251826
Au     11.41890     17.29069     13.34107        -0.619525      0.576695     -1.435294
Au     12.99222     15.86626     11.59605         0.099795      0.054357     -1.245683
Au     16.63380     14.46524     14.14045         0.731998     -0.901466     -0.108542
Au     13.88566     18.31996     12.31487        -0.383231      0.557621     -0.640607
Au     11.74754     17.38806     15.99992        -1.429418     -1.531255      2.942970
Au     13.77770     16.34692     14.51028         0.245760     -0.287772     -0.163501
Au     15.55853     18.60264     14.52178         0.572301      0.921482      0.102219
Au     16.07459     16.33709     16.11173         2.016747      0.382335     -0.082057
Au     14.25785     18.29796     16.80010        -0.079501      0.324812      1.298191
Au     13.99290     15.65952     17.41528        -2.236850      1.179872      2.565689
Au      9.86419     15.76180     14.94130        -1.210901     -0.058174      0.522973
Au     12.85877     19.15696     14.68248         0.696552      2.842447     -1.309524
Au     14.74563     13.86428     15.88626         0.677029     -2.460880     -0.616338
Au     12.10900     14.38032     15.68543         0.064654     -0.243494      0.917845
