19
# total energy = -47.02596707 eVAu     17.93313     17.22405     12.73024        -0.003082      0.090256     -0.035827
Au     18.55928     14.58774     11.89608        -0.075162      0.051061      0.085862
Au     16.12771     13.31171     12.35619        -0.010073     -0.026669      0.024406
Au     13.57497     16.24819     11.74590         0.012158      0.030892     -0.018114
Au     16.19523     15.72956     10.96874        -0.008398      0.034432     -0.012733
Au     13.50755     13.83044     13.13342         0.009439     -0.033693      0.017022
Au     15.48735     18.26691     11.86711         0.007282     -0.034362      0.047073
Au     13.59148     14.84795     15.83788         0.011682     -0.079583      0.054344
Au     17.84341     14.00614     14.57705        -0.008601     -0.075353      0.060804
Au     11.83076     15.92018     13.89138         0.120522      0.012988      0.026729
Au     15.59429     15.80432     13.87234        -0.024752     -0.035146     -0.061431
Au     15.33619     12.83838     14.98229         0.010133      0.056479     -0.005325
Au     13.68103     18.06616     13.99119         0.015225      0.087260     -0.040967
Au     15.10764     17.27859     16.41744         0.061365     -0.034370     -0.057625
Au     12.32660     17.28218     16.28883         0.066318     -0.003563     -0.002030
Au     16.24714     14.77345     16.76231        -0.020049     -0.029949     -0.050322
Au     16.35900     18.79011     14.45706        -0.020139     -0.026414     -0.052108
Au     17.82839     16.73987     15.61082        -0.089906     -0.004092     -0.012389
Au     19.91565     15.77932     14.03812        -0.053962      0.019824      0.032631
