19
# total energy = -46.73658808 eVAu     12.93993     15.91284     13.03743        -0.010012      0.000000     -0.010012
Au     15.00216     13.85061     13.03743         0.000000     -0.010012     -0.010012
Au     17.06442     15.91284     13.03743         0.010012      0.000000     -0.010012
Au     15.00216     15.91284     11.22207         0.000000      0.000000      0.032325
Au     15.00216     17.97510     13.03743         0.000000      0.010012     -0.010012
Au     12.93993     15.91284     17.16192        -0.010012      0.000000      0.010012
Au     12.93993     13.85061     15.09969        -0.010012     -0.010012     -0.000000
Au     11.12454     15.91284     15.09969         0.032325      0.000000     -0.000000
Au     15.00216     13.85061     17.16192        -0.000000     -0.010012      0.010012
Au     17.06442     15.91284     17.16192         0.010012     -0.000000      0.010012
Au     17.06442     13.85061     15.09969         0.010012     -0.010012     -0.000000
Au     18.87978     15.91284     15.09969        -0.032325      0.000000     -0.000000
Au     15.00216     12.03522     15.09969         0.000000      0.032325     -0.000000
Au     15.00216     15.91284     18.97731         0.000000      0.000000     -0.032325
Au     15.00216     15.91284     15.09969         0.000000      0.000000     -0.000000
Au     12.93993     17.97510     15.09969        -0.010012      0.010012     -0.000000
Au     15.00216     17.97510     17.16192        -0.000000      0.010012      0.010012
Au     17.06442     17.97510     15.09969         0.010012      0.010012     -0.000000
Au     15.00216     19.79046     15.09969        -0.000000     -0.032325     -0.000000
