19
# total energy = -46.01528336 eVAu     14.87088     14.34120     11.90646         0.774128     -0.751653     -0.823542
Au     12.29019     14.95230     11.96679        -0.937192     -0.755468     -0.968736
Au     16.06122     18.71943     10.86288        -0.245525      0.743072     -1.271921
Au     16.58859     16.36782     12.06402         0.103788     -1.216583     -0.710900
Au     18.42111     18.27759     12.09648         1.716956      0.596517     -0.611108
Au     11.70777     17.48934     11.94768        -1.144483      0.425337     -0.942933
Au     14.10789     16.80165     10.87011        -0.011158     -0.222380     -1.207965
Au     13.79511     19.19106     12.32427        -0.191267      1.154142     -0.370589
Au     11.79927     18.70239     14.24907        -1.168708      1.006256      0.102725
Au     14.08710     16.77189     13.63833         0.148774      0.050245     -0.051962
Au     16.26975     18.80328     13.54626        -0.208540      1.179240      0.747715
Au     17.94675     16.85106     14.33838         0.991561     -0.482524      1.007699
Au     15.69537     17.30808     15.82701         0.559238      0.412211      1.012325
Au     12.94239     17.56953     16.35621        -0.434226      0.277844      1.456334
Au     11.70294     15.94368     14.48637        -1.090388     -0.379774      0.388814
Au     14.19399     19.51200     15.05337         0.517133      1.201926      0.364196
Au     14.01522     15.20286     16.20099         0.083153     -0.792659      1.321144
Au     13.43331     13.81956     14.07402        -0.202552     -1.482042      0.384391
Au     16.00815     14.91867     14.37285         0.739309     -0.963706      0.174311
