19
# total energy = -47.32877381 eVAu     14.57072     13.52880     12.91491         0.006968     -0.045743     -0.076374
Au     12.21577     14.84172     13.44135         0.028705     -0.010152     -0.034881
Au     16.32601     17.92035     12.07431        -0.119240      0.023422     -0.065946
Au     16.79387     15.26570     12.87608         0.016460     -0.053409      0.005218
Au     18.59428     17.33209     13.52885         0.047248     -0.023356      0.047002
Au     11.77450     17.27176     12.16039        -0.016679     -0.000925     -0.005742
Au     14.26498     16.06693     11.83519         0.017058      0.056025      0.024544
Au     13.93844     18.55898     13.35151         0.033577     -0.041601     -0.035217
Au     11.89366     17.30476     14.93901         0.021452      0.037762     -0.001492
Au     14.75327     16.08284     14.75482        -0.041051     -0.008395      0.005522
Au     16.37405     18.47750     14.82999         0.003357      0.021884      0.050913
Au     17.48947     15.90464     15.63646         0.066325      0.029172     -0.033733
Au     15.83918     17.32817     17.37651         0.028617      0.040451      0.014540
Au     13.25355     16.25365     17.23009        -0.029929      0.038555      0.048417
Au     11.21182     14.84545     16.02664         0.026691     -0.032357      0.062655
Au     13.88225     18.79014     16.11636        -0.011034      0.089032      0.002256
Au     15.52963     14.59764     17.36269        -0.099225     -0.030657      0.030532
Au     13.60696     13.55326     15.58696        -0.014514     -0.066538     -0.013033
Au     16.34849     13.43796     15.00999         0.035218     -0.023170     -0.025180
