19
# total energy = -47.11334900 eVAu     17.94175     17.31201     12.70117        -0.029537     -0.023491     -0.002512
Au     18.47235     14.65427     12.00978        -0.004286      0.005617      0.008204
Au     16.10116     13.28365     12.34813         0.028900     -0.001971     -0.015270
Au     13.58207     16.25005     11.70739        -0.032871     -0.002587      0.012605
Au     16.17120     15.73821     10.93815         0.029546     -0.012461     -0.008121
Au     13.51206     13.79478     13.11689        -0.031750      0.013851      0.005277
Au     15.47790     18.27995     11.82575        -0.001312      0.010122     -0.012371
Au     13.59611     14.77776     15.89935         0.012884      0.004899     -0.036692
Au     17.84750     13.93632     14.63930        -0.024109      0.011460     -0.023994
Au     11.98038     15.94073     13.93445         0.014774      0.001941      0.002186
Au     15.56697     15.76646     13.80337        -0.007670     -0.008878     -0.016862
Au     15.32586     12.79692     14.97285        -0.005811     -0.018120      0.002177
Au     13.69010     18.15459     13.96193         0.010761     -0.035678     -0.014712
Au     15.13993     17.22514     16.32512         0.019758      0.017462      0.030266
Au     12.43436     17.31204     16.34776        -0.006113      0.027253      0.042638
Au     16.24064     14.71138     16.78297        -0.009298     -0.048210      0.004403
Au     16.35596     18.84029     14.41303        -0.006400      0.022834     -0.039962
Au     17.73670     16.71096     15.55574         0.003809      0.021520      0.033705
Au     19.87382     15.83975     14.14127         0.038727      0.014437      0.029034
