19
# total energy = -47.40510086 eVAu     18.41656     18.89155     12.37509         0.007547      0.006360     -0.007457
Au     19.08313     14.33771     12.90720        -0.094556     -0.040560      0.081968
Au     13.67088     16.94374     14.12049         0.009414     -0.033813      0.000684
Au     16.43594     13.80451     12.45133        -0.032249     -0.026361      0.065492
Au     14.72002     15.91328     11.76603         0.021243      0.012253      0.004684
Au     17.48856     16.33330     11.78657         0.017066      0.024603     -0.017586
Au     14.05901     14.14792     13.84537         0.011475     -0.012218      0.007854
Au     19.26257     16.86138     14.08217         0.015964      0.023552     -0.019062
Au     15.71282     18.31425     12.74906         0.001945      0.056203      0.006331
Au     14.32236     15.24971     16.37637         0.053395     -0.010114     -0.038570
Au     18.89383     14.53606     15.63182        -0.064546     -0.036550      0.024461
Au     16.46156     15.99244     14.55235         0.060863      0.141692     -0.079624
Au     16.34215     13.30786     15.26218         0.007584     -0.053747      0.006042
Au     14.72837     19.38378     15.11234        -0.003104     -0.012092      0.004794
Au     15.89096     17.60413     16.99318         0.008191     -0.033830      0.000412
Au     13.13141     17.73176     16.72636        -0.001278     -0.045248      0.011645
Au     16.85757     14.98053     17.46706        -0.001179     -0.016528     -0.009484
Au     17.44381     18.82916     14.98909        -0.016436      0.050156     -0.018366
Au     18.60774     17.06989     16.79689        -0.001340      0.006244     -0.024215
