19
# total energy = -47.25592170 eVAu     14.56283     12.77206     13.62685        -0.009896      0.012408     -0.015300
Au     12.23817     14.12161     14.31205         0.003560      0.001782     -0.002147
Au     16.58358     16.78536     12.49160         0.003941      0.004446     -0.016676
Au     16.89619     14.25493     13.55106         0.000889      0.002445      0.019230
Au     18.67134     16.31752     14.24743        -0.025272      0.006619      0.022929
Au     12.04743     16.82270     13.64338         0.000108     -0.010247     -0.016956
Au     14.21505     15.36468     12.64367        -0.031808      0.011363     -0.003090
Au     14.42618     18.17655     13.44686         0.017030     -0.013561     -0.009538
Au     11.18078     16.16942     16.15297        -0.030741     -0.006046      0.021921
Au     14.79685     14.99518     15.44209         0.030216     -0.039844      0.020789
Au     16.35419     17.48014     15.33836         0.005392     -0.010316      0.016836
Au     17.51191     15.04783     16.42936        -0.012300      0.000171     -0.017437
Au     15.48685     16.50191     17.78987         0.011962      0.024479     -0.030978
Au     13.10934     15.10058     17.81785         0.014030     -0.004682     -0.007783
Au     11.07997     13.47657     16.78726        -0.016684     -0.026002     -0.020137
Au     13.57338     17.53846     16.02847         0.042089      0.021140      0.017154
Au     15.54123     13.71336     18.03150         0.008485     -0.003449     -0.003414
Au     13.62730     12.49461     16.28507        -0.016365      0.010033      0.009858
Au     16.43124     12.49507     15.68798         0.005364      0.019261      0.014739
