19
# total energy = -47.30101734 eVAu     15.28581     15.16738     15.33013        -0.045141      0.031720      0.000155
Au     15.34106     13.04801     13.33595        -0.037065     -0.049040     -0.099492
Au     16.90621     17.24333     14.05797         0.090538     -0.018700      0.011889
Au     17.71280     14.52581     13.68024         0.029545      0.000234      0.061969
Au     19.45196     16.31547     14.89912        -0.010503      0.008237     -0.066974
Au     13.18005     14.95596     13.46278         0.035142      0.073227     -0.089069
Au     15.60560     15.54753     12.14423        -0.018895     -0.026564      0.031112
Au     14.25776     17.58132     13.44525        -0.000693      0.075694      0.008031
Au     12.55998     17.15532     15.51096        -0.021389     -0.005215     -0.013148
Au     17.91238     17.86628     16.60707        -0.042972     -0.019740     -0.007079
Au     17.94734     14.93152     16.66553         0.013317      0.004546     -0.017616
Au     16.38772     16.45386     18.39320        -0.030026      0.068273      0.012229
Au     13.77384     15.97532     17.75901         0.009047     -0.045309      0.039998
Au     12.25769     14.45397     15.95893         0.044691     -0.061380     -0.000491
Au     13.13868     13.21459     18.29736         0.071435      0.054088     -0.013448
Au     15.15829     17.93385     16.19168        -0.026399     -0.057491      0.055211
Au     15.77224     13.77579     17.84956        -0.032931      0.013537     -0.021997
Au     14.18881     12.48017     15.76933         0.062392     -0.002420      0.091054
Au     16.98260     12.57781     15.56320        -0.090093     -0.043698      0.017667
