19
# total energy = -47.43409079 eVAu     14.66910     13.50288     12.74047        -0.010764      0.028441      0.011882
Au     12.29916     14.80362     13.44953        -0.008764     -0.002068      0.019385
Au     16.32209     17.96167     12.00034         0.007260     -0.040221      0.070610
Au     16.74492     15.31334     12.93035        -0.021005     -0.040174     -0.027909
Au     18.56433     17.28275     13.60173        -0.022045     -0.012757      0.018159
Au     11.74240     17.23762     12.20651        -0.005468     -0.007385      0.011981
Au     14.26221     16.10536     11.82444         0.001538     -0.002392      0.014931
Au     13.94181     18.55034     13.30894         0.003474     -0.014171      0.010859
Au     11.96815     17.32982     14.98529        -0.007680     -0.016139      0.006221
Au     14.55271     16.01639     14.82176         0.020691     -0.017682      0.034933
Au     16.34052     18.39984     14.80521        -0.030506      0.035845      0.018725
Au     17.36550     15.86607     15.67526        -0.009935     -0.018084      0.026757
Au     15.84616     17.36833     17.40984         0.045038      0.050399      0.001391
Au     13.18452     16.70329     17.50574        -0.016710      0.060149     -0.010457
Au     11.75809     14.81146     16.20173         0.014909      0.014808     -0.018438
Au     13.95247     18.97461     16.06537        -0.004283     -0.024263     -0.020038
Au     15.12347     14.64027     17.20897        -0.002726      0.043897     -0.072805
Au     13.65655     13.10138     15.31654        -0.007955     -0.022605     -0.059514
Au     16.36676     13.39326     14.99408         0.054932     -0.015597     -0.036674
