19
# total energy = -35.34440649 eVAu     13.37762     12.33852     13.74273         0.339969      0.309271      0.324328
Au     12.44658     19.91538     13.74262         0.098014     -0.448527      0.324346
Au     19.47385     16.93328     13.74261        -0.438745      0.139278      0.324606
Au     11.49442     16.26240     12.32619         0.009748      0.201492      0.440465
Au     16.78644     19.58435     12.32616         0.168749     -0.109167      0.440691
Au     17.01727     13.34039     12.32620        -0.179402     -0.092197      0.441302
Au     17.27201     15.49368     13.77480         0.915601     -0.435377      0.331817
Au     13.23189     14.96518     13.77476        -0.834560     -0.574541      0.330984
Au     14.79422     18.72825     13.77477        -0.080138      1.010795      0.331235
Au     16.82110     20.45292     15.94887        -0.339969     -0.309271     -0.324328
Au     17.75214     12.87606     15.94898        -0.098014      0.448527     -0.324346
Au     10.72487     15.85816     15.94899         0.438745     -0.139278     -0.324606
Au     15.09936     16.39572     14.84580        -0.000000      0.000000      0.000000
Au     18.70430     16.52904     17.36541        -0.009748     -0.201492     -0.440465
Au     13.41228     13.20706     17.36544        -0.168749      0.109167     -0.440691
Au     13.18145     19.45102     17.36540         0.179402      0.092197     -0.441302
Au     12.92674     17.29776     15.91680        -0.915601      0.435377     -0.331817
Au     16.96683     17.82626     15.91684         0.834560      0.574541     -0.330984
Au     15.40450     14.06316     15.91683         0.080138     -1.010795     -0.331235
