19
# total energy = -47.26648961 eVAu     12.99100     12.99050     13.60344         0.006650     -0.006819     -0.007987
Au     10.79500     14.69173     13.89087         0.010811      0.001412     -0.016195
Au     14.02813     17.48514     12.82406        -0.019214     -0.000604     -0.004359
Au     15.16750     14.85545     13.39146        -0.014927     -0.015388     -0.002043
Au     16.57470     17.18868     13.85861        -0.018182     -0.006012      0.006149
Au     11.17279     17.18825     12.69740         0.000102      0.006881     -0.010610
Au     12.82116     15.14067     11.90363        -0.006663     -0.005639     -0.007108
Au     12.30317     19.09939     14.31291        -0.009741      0.008541      0.000475
Au     10.47068     17.17201     15.40034         0.010792      0.016073     -0.008284
Au     13.10675     15.96063     15.13004        -0.000131     -0.000896     -0.000720
Au     14.70812     18.36259     15.52583        -0.016699      0.004824      0.012839
Au     15.84738     15.73350     16.09341        -0.010127     -0.011004      0.015477
Au     14.35670     17.12212     18.00339        -0.003094      0.002186      0.011675
Au     11.75701     15.93319     17.71209         0.018209      0.008311      0.005888
Au      9.63943     14.73311     16.40174         0.018869      0.005975     -0.007523
Au     12.25836     18.58957     17.01090         0.004743      0.011089      0.003939
Au     14.07704     14.39210     17.91657         0.010136     -0.002869      0.006435
Au     12.08170     13.45296     16.20292         0.019479     -0.005141     -0.002119
Au     14.87493     13.16352     15.59390        -0.001012     -0.010922      0.004070
