19
# total energy = -47.39980384 eVAu     14.88572     14.19418     11.81749        -0.020912     -0.034562     -0.004564
Au     12.19116     14.84046     11.85936         0.055811      0.020474      0.004755
Au     15.94878     18.69266     10.88283         0.015908      0.012528     -0.017489
Au     16.70805     16.19088     11.90365        -0.019050     -0.046349     -0.015770
Au     18.49165     18.29963     12.07141        -0.071979     -0.020124      0.027144
Au     11.66252     17.52929     11.87491         0.038619     -0.008958      0.031167
Au     14.07411     16.66998     10.73451        -0.059278      0.045995     -0.017082
Au     13.72314     19.36225     12.37424        -0.059889     -0.010913     -0.059735
Au     11.66955     18.82865     14.28911         0.061997     -0.004770     -0.015731
Au     14.32959     16.85864     13.55176         0.017624      0.001930     -0.012606
Au     16.33465     19.04356     13.64134        -0.008361      0.026441      0.018274
Au     17.85354     16.80431     14.39146         0.031673      0.004387      0.001577
Au     15.67983     17.42032     15.97797        -0.009039     -0.070094      0.050610
Au     12.88183     17.63036     16.52397         0.048784      0.001603     -0.042790
Au     11.84946     15.99431     14.43633        -0.014217     -0.003727      0.004736
Au     14.17314     19.65546     15.14343        -0.038330      0.022296      0.033790
Au     14.04751     15.15975     16.27573         0.002247      0.036787     -0.038594
Au     13.40317     13.63596     14.09060         0.040902      0.039189     -0.023326
Au     16.02964     14.73274     14.34145        -0.012510     -0.012133      0.075634
