19
# total energy = -47.13802829 eVAu     15.51221     15.28803     15.34982         0.017271     -0.044178     -0.048306
Au     15.40345     13.02122     13.29912         0.026462     -0.018209      0.046235
Au     17.01531     17.33324     13.96995        -0.086573     -0.024560      0.018091
Au     17.81363     14.50088     13.72594        -0.046098     -0.028417     -0.021646
Au     19.53989     16.40384     14.76378        -0.088688     -0.051647      0.085951
Au     13.24225     14.85860     13.70203         0.021551      0.046682     -0.043971
Au     15.63978     15.53532     12.24980        -0.053203      0.024070      0.018561
Au     14.30281     17.57403     13.51550         0.027304     -0.019722     -0.049064
Au     12.54231     17.01142     15.49560        -0.003889      0.048073     -0.009834
Au     17.92255     17.83286     16.54384        -0.029584     -0.019852     -0.022729
Au     18.06815     14.92526     16.64060        -0.041940     -0.013746      0.041195
Au     16.34351     16.42367     18.27512         0.001014     -0.006890      0.054252
Au     13.74346     15.81966     17.66783         0.008399      0.077077      0.067071
Au     11.80785     14.40965     16.07463         0.124195      0.033317     -0.029838
Au     13.07587     13.17659     18.25590         0.090849      0.045901     -0.023843
Au     15.12663     17.96260     16.20175        -0.041618     -0.051172      0.036486
Au     15.76645     13.73368     17.88197         0.059887      0.065814     -0.030606
Au     14.05788     12.78790     15.69537         0.067995     -0.062086     -0.058765
Au     16.89684     12.60488     15.61295        -0.053335     -0.000457     -0.029240
