19
# total energy = -47.10138601 eVAu     15.56429     14.07566     12.02195         0.030467      0.002498     -0.006527
Au     12.96709     14.21157     12.92273        -0.027482      0.003519      0.010813
Au     16.59993     16.83719     11.88614        -0.029509     -0.036750      0.042237
Au     18.10891     14.69376     12.89680        -0.023206      0.032318      0.016711
Au     18.93717     17.33581     13.37596         0.029837      0.039060      0.002619
Au     12.33002     17.05986     13.36614         0.045754     -0.040432      0.015474
Au     13.95475     16.21091     11.26358        -0.000141      0.013838      0.000208
Au     14.54272     18.58675     12.60509        -0.017476     -0.039495     -0.043695
Au     11.47187     17.72553     15.96440        -0.019460      0.042463      0.018669
Au     14.97697     15.85862     14.26799         0.003707      0.024122      0.005336
Au     16.63050     18.31101     14.41858        -0.058522      0.002776      0.021885
Au     17.78274     15.81984     15.44971        -0.051050     -0.014202     -0.032430
Au     15.98436     17.34842     16.94447         0.002715     -0.054179      0.019610
Au     13.51383     16.04281     16.93000         0.022173     -0.019244     -0.055238
Au     11.57820     15.03485     15.16187         0.030203      0.029593     -0.001214
Au     14.00788     18.44846     15.32903         0.060305     -0.005200     -0.020737
Au     15.87391     14.56197     17.04586         0.002492      0.007398      0.006635
Au     13.82706     13.47199     15.51312        -0.029101      0.007930      0.008861
Au     16.42421     13.33693     14.61206         0.028294      0.003987     -0.009215
