19
# total energy = -47.45538633 eVAu     14.64867     13.50558     12.70380         0.011332      0.007993      0.029443
Au     12.27516     14.79619     13.45232         0.026260      0.001634      0.041382
Au     16.32725     17.92917     12.05500         0.031368     -0.036576      0.066825
Au     16.75222     15.27253     12.92130        -0.013824      0.037499      0.009775
Au     18.56853     17.23946     13.67353        -0.103797     -0.010433     -0.003343
Au     11.71325     17.23486     12.20281         0.071275     -0.025420      0.060186
Au     14.24633     16.10718     11.82169        -0.011262      0.017215     -0.022038
Au     13.92713     18.54553     13.30475        -0.011968      0.010409     -0.026732
Au     11.94301     17.32766     14.99039         0.034083     -0.032767      0.018492
Au     14.53267     16.04641     14.76808         0.026248     -0.014261      0.031482
Au     16.33877     18.42737     14.83783        -0.001297     -0.030662     -0.031493
Au     17.31407     15.84053     15.70429        -0.043987      0.007825     -0.015064
Au     15.86090     17.42648     17.43229         0.021754     -0.014616     -0.039307
Au     13.20096     16.78961     17.54715        -0.041790      0.048507     -0.011512
Au     11.92392     14.81095     16.23873         0.032165      0.018011     -0.007385
Au     13.92876     19.00414     16.04369         0.018675     -0.032209      0.007501
Au     15.07460     14.67887     17.13508        -0.031777      0.029465     -0.051868
Au     13.69208     13.02936     15.26352        -0.032893     -0.023430     -0.054088
Au     16.39264     13.35045     14.95585         0.019434      0.041817     -0.002257
