19
# total energy = -47.13164767 eVAu     15.56156     14.06711     12.01589         0.014325     -0.010992      0.004638
Au     12.96445     14.20224     12.91582        -0.010936     -0.009855      0.013438
Au     16.58322     16.83220     11.89057        -0.003886      0.006041      0.020464
Au     18.08698     14.73312     12.91523         0.005208     -0.003191     -0.002894
Au     18.93257     17.38950     13.39303        -0.028893      0.003937      0.009578
Au     12.34512     17.05296     13.35907         0.015336      0.005502      0.013865
Au     13.94532     16.19519     11.23986         0.000674     -0.008522      0.001155
Au     14.52881     18.58473     12.56593         0.007616     -0.020485      0.018865
Au     11.49085     17.77774     15.97310         0.029764      0.001600     -0.008721
Au     14.97475     15.84141     14.26377         0.000799      0.001897      0.000339
Au     16.60535     18.29413     14.42218         0.002234      0.017164      0.003206
Au     17.76627     15.81574     15.45340        -0.014552      0.013066     -0.007915
Au     15.99459     17.32641     16.97764        -0.008648     -0.009300     -0.026061
Au     13.52924     16.03675     16.92295         0.005609      0.013220     -0.015196
Au     11.61026     15.07169     15.16165        -0.005563     -0.005274      0.000448
Au     14.02844     18.42826     15.31634         0.001198      0.016918      0.004299
Au     15.87731     14.53489     17.06020        -0.001470     -0.003008     -0.004323
Au     13.82716     13.46147     15.51446        -0.018087     -0.003254     -0.008703
Au     16.42419     13.32641     14.61438         0.009272     -0.005465     -0.016481
