19
# total energy = -47.27911059 eVAu     13.98038     13.91238     13.32076         0.028170      0.010952     -0.060978
Au     11.26570     14.38799     12.93603        -0.015981     -0.027092      0.017399
Au     16.50159     18.61946     11.89439         0.044603     -0.010905     -0.002905
Au     15.58988     15.90542     12.05066        -0.016313      0.015236      0.000670
Au     17.37283     16.91745     13.93758        -0.031502     -0.008296      0.050707
Au     11.50773     17.29872     13.24070         0.047120     -0.006576     -0.008526
Au     12.96201     15.80133     11.33923         0.013068      0.033009      0.010356
Au     16.65300     14.25681     14.08505         0.009148      0.043364     -0.011917
Au     13.84797     18.30100     12.27268        -0.026146     -0.005805      0.006730
Au     11.77880     17.20756     16.32774         0.003720      0.009238     -0.024047
Au     14.02680     16.50504     14.55404         0.003803     -0.022555      0.023628
Au     15.59218     18.92177     14.56970        -0.019683      0.038740     -0.019509
Au     16.20650     16.27306     16.31598        -0.032329     -0.038138      0.024890
Au     14.28325     18.36773     16.94736         0.038377     -0.036010     -0.027389
Au     13.77874     15.72721     17.62002         0.027945      0.007609     -0.009320
Au      9.89289     15.84568     14.84362        -0.076654     -0.033374      0.063741
Au     12.82292     19.26735     14.73842         0.019947      0.025306     -0.052285
Au     14.86823     13.73702     16.04885        -0.004777     -0.003722      0.020429
Au     12.25534     14.46271     15.55763        -0.012515      0.009019     -0.001673
