19
# total energy = -46.59821904 eVAu     14.47747     12.69258     13.55064        -0.397307     -0.259265     -0.609317
Au     12.32217     14.10169     14.32652        -0.596410     -0.159096      0.079303
Au     16.67841     16.87999     12.48169         0.261052      0.483250     -0.204934
Au     16.65822     14.44813     13.49518         1.515418     -0.956527      0.319047
Au     18.74500     16.27392     14.26713        -0.379392      0.007452      0.068784
Au     12.13952     16.77054     13.67778        -0.237520      0.026443     -0.215274
Au     14.31682     15.30496     12.65176        -1.072914      0.554918     -0.710404
Au     14.46619     18.09046     13.45157         0.015903      0.235337      0.052001
Au     11.12920     16.06704     16.09427         0.097405     -0.016547      0.246641
Au     14.78403     15.03259     15.42632         0.021489      0.007796      0.379768
Au     16.36254     17.45974     15.37470         0.405233      0.074215     -0.205769
Au     17.57090     15.02429     16.46938        -0.165160     -0.028042     -0.238297
Au     15.56873     16.58234     17.81548         0.051287      0.264170      0.155158
Au     13.16725     15.11067     17.77818        -0.833246      0.266767      0.045127
Au     11.10056     13.39768     16.83701        -0.016983      0.091833     -0.097795
Au     13.59467     17.41525     16.07228        -0.346763      0.571056     -0.020846
Au     15.50406     13.90230     18.05998         0.667452     -0.867686      0.119062
Au     13.62168     12.46707     16.34333        -0.754095     -0.038812      0.189670
Au     16.12639     12.60731     15.58048         1.764553     -0.257261      0.648076
