19
# total energy = -47.35607592 eVAu     15.17006     15.18708     15.26818         0.007660     -0.005887      0.039456
Au     15.20031     13.05825     13.40228         0.002301      0.030986      0.022633
Au     16.93423     17.22905     14.08532         0.002636      0.015423      0.001390
Au     17.67636     14.47860     13.73571        -0.003981      0.005662     -0.031492
Au     19.46629     16.32110     14.83398         0.026394     -0.003945     -0.006760
Au     13.10149     15.13581     13.28961        -0.016317      0.025418      0.026609
Au     15.62577     15.55238     12.19561        -0.033585      0.005662     -0.004274
Au     14.31440     17.68620     13.47651         0.010238      0.026543     -0.027181
Au     12.58833     17.07689     15.49434        -0.020088      0.004880     -0.034084
Au     17.92290     17.85041     16.61070         0.007724      0.003686      0.025616
Au     17.90636     14.97452     16.59808        -0.023140     -0.022165      0.032755
Au     16.36837     16.49460     18.42233         0.018674     -0.015342     -0.025208
Au     13.74002     15.97846     17.80052        -0.006870     -0.015003     -0.033190
Au     12.43925     14.33659     15.82012        -0.000396     -0.021654      0.006648
Au     13.16737     13.27289     18.31584        -0.023035     -0.017420      0.005027
Au     15.15176     17.90984     16.24794         0.018084     -0.001339     -0.031037
Au     15.78402     13.83259     17.83197         0.013316      0.008099     -0.013812
Au     14.28166     12.29056     15.91383         0.001722     -0.044867      0.023284
Au     16.98188     12.53748     15.57863         0.018662      0.021265      0.023620
