19
# total energy = -47.04608427 eVAu     15.58336     14.09566     12.03115        -0.001273     -0.026024      0.016322
Au     12.95955     14.23290     12.94078         0.009769     -0.025078      0.012737
Au     16.61791     16.80376     11.94277        -0.032728      0.033768     -0.050340
Au     18.18018     14.63291     12.85564        -0.051597      0.005095      0.017898
Au     18.97580     17.25754     13.34078         0.008060      0.079521      0.019754
Au     12.34858     17.02702     13.42344        -0.002152      0.031348     -0.062845
Au     13.96852     16.23146     11.30116        -0.017101     -0.012964     -0.045140
Au     14.55767     18.57227     12.64811        -0.005320      0.023794     -0.013488
Au     11.41309     17.65240     15.96327         0.011691      0.078424      0.018907
Au     14.98540     15.91672     14.28199        -0.006467     -0.044051     -0.010289
Au     16.67685     18.37160     14.42140        -0.045051     -0.042741      0.003517
Au     17.76044     15.82127     15.38475         0.006605     -0.001539      0.068202
Au     15.96930     17.35819     16.90112         0.008812      0.016408      0.020980
Au     13.49127     16.04454     16.86551         0.036443     -0.003050      0.058241
Au     11.49100     14.98196     15.17550         0.051789      0.000747     -0.017162
Au     13.97941     18.51297     15.35702         0.035008     -0.046418     -0.023843
Au     15.86725     14.59908     17.02210         0.009286     -0.037139      0.033139
Au     13.81346     13.49846     15.51441        -0.001046     -0.015720     -0.024640
Au     16.43739     13.36121     14.60457        -0.014726     -0.014381     -0.021950
