19
# total energy = -47.30166364 eVAu     14.56614     13.54144     12.92963         0.007837     -0.013612     -0.035337
Au     12.20999     14.84789     13.44213         0.032087     -0.022350     -0.007835
Au     16.31534     17.92807     12.05915        -0.001467     -0.018765      0.030732
Au     16.79804     15.26684     12.88601        -0.026563     -0.015556     -0.018795
Au     18.59504     17.32274     13.54407         0.013316      0.021843     -0.032731
Au     11.77279     17.27789     12.15011        -0.003624     -0.011948      0.018240
Au     14.26618     16.07846     11.82461         0.011978     -0.026725      0.039629
Au     13.94083     18.56340     13.33698         0.010825     -0.020917      0.042486
Au     11.88910     17.29990     14.93416         0.026063      0.023328      0.017622
Au     14.72998     16.08768     14.74205         0.052882     -0.009283      0.025528
Au     16.37896     18.46855     14.83451        -0.030429      0.019348      0.001219
Au     17.50694     15.90233     15.64381        -0.043614      0.004496     -0.016022
Au     15.85438     17.34058     17.38614        -0.036486     -0.026454     -0.031465
Au     13.25734     16.21120     17.22248        -0.006129      0.100716      0.016374
Au     11.16655     14.84269     16.02119         0.106357      0.001767      0.021429
Au     13.88168     18.77090     16.11193         0.001465      0.038892     -0.005120
Au     15.56296     14.60506     17.35745        -0.084999     -0.016195      0.009230
Au     13.60180     13.57942     15.62098         0.014736     -0.060065     -0.081323
Au     16.36686     13.42730     15.00473        -0.044237      0.031480      0.006140
