19
# total energy = -47.08746748 eVAu     15.51009     15.29074     15.35827         0.027634     -0.036491     -0.111199
Au     15.39474     13.02551     13.31468         0.118988     -0.021649     -0.177829
Au     16.99374     17.32890     13.95755         0.283285      0.026952      0.184360
Au     17.80791     14.50081     13.73108         0.051221      0.021387     -0.038938
Au     19.56025     16.40782     14.75409        -0.317759     -0.056583      0.140492
Au     13.24871     14.85427     13.71117        -0.057445      0.065269     -0.089819
Au     15.64445     15.54325     12.26180        -0.062504     -0.106726     -0.111348
Au     14.31830     17.56516     13.52512        -0.193318      0.083113     -0.099820
Au     12.54897     17.00220     15.49811        -0.055861      0.089541     -0.036188
Au     17.92078     17.83771     16.55494         0.008685     -0.103344     -0.166256
Au     18.05213     14.91598     16.63808         0.190220      0.144088      0.005568
Au     16.32336     16.41093     18.25552         0.261905      0.160117      0.213920
Au     13.77033     15.82685     17.65617        -0.344222     -0.121700      0.122859
Au     11.79342     14.41424     16.06978         0.232206     -0.053696      0.071332
Au     13.05898     13.16354     18.27489         0.235813      0.198315     -0.288634
Au     15.13080     17.95197     16.19649        -0.044326      0.104820      0.056713
Au     15.77604     13.74324     17.87022        -0.147887     -0.109931      0.125094
Au     14.07651     12.79765     15.67499        -0.238414     -0.089790      0.281205
Au     16.89132     12.62255     15.61855         0.051780     -0.193692     -0.081513
