19
# total energy = -47.36079957 eVAu     14.58887     13.48217     12.83801         0.060366      0.068703      0.047892
Au     12.24480     14.82962     13.43504         0.018978      0.015350      0.041332
Au     16.31234     17.92234     12.06692        -0.044128     -0.002378     -0.007113
Au     16.80569     15.24460     12.86700        -0.099450      0.013482      0.025460
Au     18.58202     17.33190     13.52662         0.037906      0.014473     -0.016408
Au     11.76018     17.26103     12.17303        -0.005820     -0.007055      0.011237
Au     14.26355     16.06697     11.86199         0.052806      0.010091      0.017990
Au     13.94091     18.53598     13.36268         0.053558     -0.009941      0.007091
Au     11.91930     17.32024     14.94951         0.026231     -0.038925      0.008388
Au     14.74933     16.05774     14.79590        -0.043702     -0.010089      0.004672
Au     16.38057     18.49721     14.84551        -0.093095     -0.047830     -0.011947
Au     17.49283     15.91847     15.61404        -0.056278     -0.060040      0.086796
Au     15.83743     17.32190     17.36524        -0.000429      0.041384     -0.024416
Au     13.23255     16.36430     17.27706        -0.017241      0.075878      0.034013
Au     11.30848     14.83389     16.06708         0.018184      0.010635     -0.011772
Au     13.88184     18.88232     16.12242         0.076966     -0.058251     -0.032418
Au     15.40373     14.58262     17.36214         0.004947      0.044085     -0.078547
Au     13.61183     13.45884     15.51099         0.012321     -0.063816     -0.056994
Au     16.34467     13.45021     15.01090        -0.002119      0.004245     -0.045256
