19
# total energy = -47.45205942 eVAu     14.65505     13.50886     12.71843        -0.000902      0.024109      0.012731
Au     12.27661     14.79928     13.45149         0.047889     -0.009203      0.028135
Au     16.33139     17.93775     12.04208        -0.013369     -0.033347      0.050292
Au     16.74940     15.28464     12.92337        -0.040864     -0.001118      0.001200
Au     18.56018     17.24935     13.65599        -0.008605      0.009112     -0.015391
Au     11.72265     17.23416     12.20671         0.027675     -0.006515      0.019012
Au     14.24921     16.11023     11.81687         0.013160     -0.004916      0.026760
Au     13.93007     18.54966     13.30015         0.012503     -0.018571      0.018258
Au     11.94507     17.32711     14.98714         0.048115     -0.011456      0.025396
Au     14.53477     16.03180     14.79291         0.013273      0.013635     -0.020198
Au     16.33839     18.41926     14.82803        -0.034034     -0.008759     -0.006128
Au     17.33419     15.84924     15.69482        -0.093926     -0.029889      0.033654
Au     15.86522     17.41737     17.43112        -0.011795     -0.036880     -0.051159
Au     13.19318     16.77213     17.53820        -0.001318      0.017594     -0.025701
Au     11.87380     14.81223     16.22602         0.075057      0.010703      0.003376
Au     13.93740     18.99003     16.04863         0.004024     -0.020010     -0.016973
Au     15.08779     14.67007     17.15208        -0.012914      0.032907     -0.054558
Au     13.68029     13.04296     15.27374         0.002739      0.014654     -0.032182
Au     16.39626     13.35619     14.96432        -0.026708      0.057950      0.003473
