19
# total energy = -47.39929946 eVAu     14.88526     14.18218     11.81285        -0.004115     -0.006344     -0.001431
Au     12.21557     14.89053     11.87373        -0.004003     -0.014555      0.008092
Au     15.97484     18.71438     10.85279         0.001310     -0.013475      0.022471
Au     16.66333     16.20141     11.93432         0.047845      0.050032      0.000267
Au     18.47382     18.29570     12.07718        -0.031863     -0.011967      0.012163
Au     11.63986     17.56498     11.80945        -0.003570     -0.015640      0.024061
Au     14.07678     16.70705     10.73870         0.002572     -0.007560      0.001117
Au     13.73209     19.34293     12.34304         0.002846      0.002392      0.007658
Au     11.70503     18.79771     14.25139        -0.006101     -0.000685      0.017881
Au     14.24734     16.82724     13.58040         0.019511      0.007727     -0.006561
Au     16.29695     19.00474     13.64003         0.054964     -0.013575     -0.036684
Au     17.89802     16.80905     14.39644        -0.020489      0.006875     -0.015938
Au     15.69844     17.39242     15.96746        -0.001583      0.007228     -0.002376
Au     12.91653     17.59742     16.48611        -0.015668      0.009758     -0.000258
Au     11.78082     15.97050     14.45968         0.002355      0.000350     -0.001039
Au     14.16807     19.66749     15.15156        -0.004099      0.001399      0.003703
Au     14.09314     15.13182     16.33462        -0.024753      0.005026     -0.014813
Au     13.42780     13.68812     14.10712        -0.013832     -0.005841     -0.010763
Au     16.04330     14.75771     14.36469        -0.001329     -0.001146     -0.007549
