19
# total energy = -47.44341101 eVAu     14.66304     13.52015     12.74053        -0.026744     -0.045692     -0.060990
Au     12.28525     14.80077     13.45552         0.009377      0.003607     -0.028337
Au     16.33470     17.94248     12.03532        -0.038085      0.004834     -0.017833
Au     16.73589     15.29637     12.92544         0.048257      0.010330     -0.001891
Au     18.55061     17.26363     13.63142         0.041984     -0.017427      0.033143
Au     11.73715     17.23258     12.21368        -0.026359      0.007636     -0.022046
Au     14.25587     16.11295     11.81516        -0.007117     -0.008148      0.026800
Au     13.93659     18.55184     13.29767        -0.003997     -0.020653      0.021046
Au     11.95444     17.32430     14.98804         0.004887      0.025975     -0.015072
Au     14.53896     16.01376     14.82390        -0.025079      0.072260     -0.127593
Au     16.32881     18.40901     14.81692         0.040798      0.012225     -0.004407
Au     17.34121     15.85301     15.69194         0.014833      0.002634     -0.012896
Au     15.87122     17.40142     17.42116        -0.054011      0.000280      0.025337
Au     13.18364     16.75520     17.52227         0.032910     -0.015003      0.031735
Au     11.82534     14.81665     16.20951         0.066496     -0.026807      0.046243
Au     13.94960     18.96646     16.04995        -0.039041      0.071423      0.004856
Au     15.10284     14.66733     17.15997        -0.017058     -0.045004      0.066661
Au     13.66674     13.06183     15.27929         0.030641     -0.005568      0.031970
Au     16.39900     13.37259     14.97440        -0.052693     -0.026901      0.003272
