19
# total energy = -42.63628109 eVAu     13.69519     12.19253     13.96380         0.016639      0.073845     -0.186365
Au     12.16158     19.71391     13.96363         0.055678     -0.049269     -0.186779
Au     19.44125     17.28108     13.96352        -0.071212     -0.022153     -0.186696
Au     11.45268     16.66837     13.06671        -0.158360      0.285668      0.003511
Au     17.15922     19.41742     13.06681         0.327573     -0.007913      0.006246
Au     16.68610     13.10090     13.06747        -0.169072     -0.279294      0.004516
Au     17.58221     15.29842     14.30227         0.064079      0.388341     -0.152963
Au     12.90778     14.79410     14.30151         0.306200     -0.251519     -0.150846
Au     14.80804     19.09455     14.30116        -0.366669     -0.140254     -0.151593
Au     16.50353     20.59891     15.72780        -0.016639     -0.073845      0.186365
Au     18.03714     13.07753     15.72797        -0.055678      0.049269      0.186779
Au     10.75747     15.51036     15.72808         0.071212      0.022153      0.186696
Au     15.09936     16.39572     14.84580        -0.000000      0.000000      0.000000
Au     18.74604     16.12307     16.62489         0.158360     -0.285668     -0.003511
Au     13.03950     13.37399     16.62479        -0.327573      0.007913     -0.006246
Au     13.51262     19.69051     16.62413         0.169072      0.279294     -0.004516
Au     12.61654     17.49302     15.38933        -0.064079     -0.388341      0.152963
Au     17.29094     17.99734     15.39009        -0.306200      0.251519      0.150846
Au     15.39068     13.69686     15.39044         0.366669      0.140254      0.151593
