19
# total energy = -47.27572943 eVAu     12.99271     12.98001     13.59730         0.006330      0.003432     -0.004179
Au     10.80634     14.69423     13.87867        -0.000428      0.000109      0.001919
Au     14.01115     17.48365     12.82290         0.001736     -0.000502     -0.000251
Au     15.15504     14.84417     13.39219        -0.001388      0.000489     -0.000599
Au     16.54737     17.17935     13.86825         0.012219      0.005441     -0.006128
Au     11.16802     17.19382     12.68748         0.004570      0.003679     -0.002207
Au     12.81768     15.13687     11.89289        -0.004026     -0.004159      0.002815
Au     12.29795     19.11031     14.31114        -0.006874     -0.000320      0.001482
Au     10.48154     17.18391     15.39402        -0.000649     -0.001839     -0.000018
Au     13.10658     15.96003     15.12944         0.000359     -0.001055     -0.000137
Au     14.69366     18.36378     15.53490         0.000090     -0.001600      0.001036
Au     15.83722     15.72549     16.10394        -0.001380     -0.000937      0.000179
Au     14.35918     17.12559     18.01524        -0.006656     -0.001222      0.002000
Au     11.77260     15.94022     17.71404         0.000264     -0.000756     -0.000572
Au      9.66655     14.74302     16.39165        -0.012382     -0.003683      0.004217
Au     12.25754     18.60036     17.01730         0.007792      0.002307     -0.000541
Au     14.08325     14.38711     17.92617         0.007182      0.001232     -0.004208
Au     12.09785     13.45084     16.19981         0.000215      0.001615      0.000670
Au     14.87934     13.15237     15.59616        -0.006973     -0.002230      0.004520
