19
# total energy = -47.32344751 eVAu     14.56988     13.53196     12.91925         0.006772     -0.046917     -0.077413
Au     12.21407     14.84300     13.44276         0.030315     -0.014128     -0.044429
Au     16.32890     17.92071     12.07436        -0.149724      0.024799     -0.074460
Au     16.79422     15.26779     12.87742         0.007932     -0.065902      0.001884
Au     18.59217     17.33144     13.52947         0.075477     -0.022675      0.051853
Au     11.77468     17.27268     12.15906        -0.014520     -0.001965     -0.003989
Au     14.26443     16.06663     11.83280         0.024706      0.065587      0.030678
Au     13.93749     18.56106     13.35061         0.044013     -0.049635     -0.039229
Au     11.89241     17.30268     14.93840         0.020731      0.047678     -0.002329
Au     14.75092     16.08364     14.75304        -0.031748     -0.003770     -0.000717
Au     16.37498     18.47536     14.82888        -0.008276      0.029891      0.059596
Au     17.48975     15.90329     15.63873         0.074365      0.034710     -0.042108
Au     15.84056     17.32849     17.37741         0.025930      0.048573      0.015721
Au     13.25511     16.24649     17.22754        -0.035050      0.040124      0.050168
Au     11.20454     14.84612     16.02382         0.030857     -0.036241      0.070124
Au     13.88250     18.78472     16.11566        -0.011296      0.092453      0.002409
Au     15.53746     14.59996     17.36053        -0.107033     -0.043404      0.048258
Au     13.60673     13.55901     15.59217        -0.016772     -0.070491     -0.014514
Au     16.35010     13.43730     15.01017         0.033319     -0.028685     -0.031503
