19
# total energy = -47.35111978 eVAu     15.16432     15.19153     15.26713         0.032567     -0.030565      0.034303
Au     15.20186     13.05409     13.39468         0.011352      0.043631      0.043410
Au     16.93052     17.22201     14.08199         0.046066      0.060597      0.042729
Au     17.67517     14.48325     13.73789         0.013772     -0.036751     -0.016054
Au     19.46673     16.32326     14.83164        -0.011555     -0.010840      0.036442
Au     13.10514     15.12803     13.29143        -0.019743      0.034089     -0.025583
Au     15.63188     15.55153     12.19717        -0.067353     -0.007217     -0.046022
Au     14.31497     17.67976     13.47679        -0.020176      0.039531     -0.016453
Au     12.58965     17.07659     15.50050        -0.015640      0.046882     -0.046830
Au     17.91736     17.84988     16.61348         0.056534      0.012504     -0.026232
Au     17.89894     14.97221     16.60238         0.067487      0.012806     -0.038413
Au     16.36972     16.49736     18.41813         0.007073     -0.026466      0.037642
Au     13.74196     15.97656     17.80604        -0.015488      0.001616     -0.023714
Au     12.44420     14.34393     15.81752        -0.047235     -0.063860      0.042839
Au     13.16830     13.27680     18.31272        -0.025748     -0.032169      0.017025
Au     15.15340     17.90755     16.25351        -0.009544      0.021236     -0.059365
Au     15.78785     13.83477     17.83123        -0.037495     -0.026350      0.016611
Au     14.28187     12.29813     15.91217        -0.009831     -0.062741      0.015220
Au     16.97700     12.53607     15.57512         0.044957      0.024064      0.012447
