19
# total energy = -47.36179040 eVAu     18.42089     18.92389     12.36438        -0.077923     -0.085891      0.079946
Au     19.25591     14.39952     12.75958        -0.076318     -0.011405      0.060835
Au     13.60122     16.92532     14.08358         0.096968      0.060365      0.035433
Au     16.55843     13.85561     12.65670        -0.003392     -0.030513     -0.096722
Au     14.77221     15.87255     11.75247         0.046632     -0.015056      0.088855
Au     17.52201     16.34908     11.77204        -0.005086      0.039379      0.001575
Au     14.09468     14.16762     13.88099        -0.053037     -0.039696     -0.077991
Au     19.28235     16.87263     14.04931        -0.012370      0.039338     -0.006028
Au     15.70713     18.28981     12.74774         0.035935      0.040285      0.022305
Au     14.27212     15.29219     16.40553         0.023716     -0.023876     -0.013466
Au     18.72446     14.50042     15.45959         0.095758     -0.001744      0.032157
Au     16.38695     16.04638     14.59745         0.006912      0.044902     -0.014805
Au     16.23926     13.20343     15.36570        -0.036808      0.021700      0.024916
Au     14.73414     19.33109     15.11963         0.038353      0.004866     -0.030317
Au     15.90997     17.61230     17.07121        -0.019044      0.026716     -0.115623
Au     13.12501     17.77666     16.72098        -0.040930     -0.038928      0.040170
Au     16.82995     14.98189     17.42057         0.067111     -0.005761      0.076908
Au     17.44895     18.80791     15.00153        -0.019949      0.023795     -0.049772
Au     18.64358     17.02463     16.76197        -0.066529     -0.048476     -0.058374
