19
# total energy = -47.33611176 eVAu     18.39411     18.93411     12.38255         0.022556      0.016168     -0.020966
Au     19.32957     14.44049     12.69310         0.006910     -0.012771     -0.002731
Au     13.61265     16.94044     14.08482        -0.038840     -0.006744      0.065658
Au     16.65101     13.86677     12.78680        -0.021924     -0.020120     -0.028915
Au     14.85321     15.83123     11.80921        -0.037668      0.030217     -0.044509
Au     17.55257     16.36541     11.74365         0.001473     -0.015179      0.036649
Au     14.09944     14.15097     13.86379        -0.035773     -0.011155      0.043140
Au     19.31365     16.88953     14.02236        -0.030522     -0.024937     -0.005256
Au     15.70091     18.31068     12.73420         0.022287      0.010663     -0.039025
Au     14.27095     15.29842     16.40494        -0.023539     -0.012365      0.021280
Au     18.62592     14.45441     15.34204         0.024564     -0.005288      0.033429
Au     16.33883     16.12101     14.61801         0.089458     -0.064486     -0.054880
Au     16.12304     13.15673     15.46656         0.036766      0.090235     -0.049725
Au     14.73921     19.31363     15.11957        -0.070044      0.027174      0.047992
Au     15.90872     17.62385     17.05563        -0.070898     -0.016532      0.025035
Au     13.08727     17.77932     16.74927         0.107396     -0.034495     -0.074872
Au     16.85108     14.96998     17.42451        -0.047328     -0.014214      0.027030
Au     17.45533     18.83296     15.00428         0.040504      0.015774     -0.015620
Au     18.62175     16.95301     16.68565         0.024621      0.048057      0.036288
