19
# total energy = -47.25093935 eVAu     14.02543     13.90049     13.27813        -0.088456     -0.010913      0.041557
Au     11.29495     14.38275     12.97029         0.018150      0.036500     -0.054230
Au     16.48077     18.62864     11.89534         0.019125     -0.003067     -0.007080
Au     15.61438     15.92394     12.05383         0.013314      0.002275     -0.008293
Au     17.41237     16.91532     13.91845         0.089085     -0.015379      0.018446
Au     11.49485     17.28820     13.22000        -0.059239     -0.005147      0.062311
Au     13.00466     15.80036     11.33879        -0.126506     -0.015037      0.030126
Au     16.66363     14.26938     14.09931         0.090410      0.018783     -0.075475
Au     13.82458     18.30926     12.28839         0.091202      0.019561     -0.066297
Au     11.76869     17.22713     16.31692         0.007225     -0.014856      0.073018
Au     13.93237     16.45856     14.54907         0.128739      0.049151     -0.010435
Au     15.59522     18.84908     14.57473         0.003557      0.073063      0.020760
Au     16.17571     16.28988     16.26816         0.041376      0.010421      0.039529
Au     14.32443     18.37535     16.98803        -0.081047     -0.017060     -0.084103
Au     13.78371     15.74842     17.62737        -0.055626     -0.040268     -0.060137
Au      9.85521     15.85768     14.84587         0.004653     -0.007016     -0.017874
Au     12.86097     19.24844     14.75825        -0.062954      0.066315     -0.042251
Au     14.86440     13.77150     16.03033        -0.183865     -0.050627      0.052910
Au     12.21039     14.47133     15.57917         0.150857     -0.096698      0.087518
