19
# total energy = -45.95367632 eVAu     14.57604     13.64439     13.01274        -0.186327     -0.925889     -0.917225
Au     12.27141     14.92161     13.49679        -0.549756     -1.022507     -0.736931
Au     16.30668     17.86815     12.15567        -0.196492      0.768312     -1.304532
Au     16.75107     15.32283     12.96282         0.329800     -0.853571     -0.864374
Au     18.45621     17.29395     13.56150         1.945903      0.355807     -0.166568
Au     11.86461     17.24016     12.23205        -1.273565      0.544636     -1.169985
Au     14.25693     16.10829     11.92545         0.329240     -0.415498     -1.127110
Au     13.94907     18.46017     13.35678         0.114231      1.233752     -0.123103
Au     11.96910     17.23092     14.90223        -0.814193      0.993494      0.491690
Au     14.70888     16.08696     14.73876         0.153387      0.067576     -0.078451
Au     16.35252     18.36747     14.81577         0.059605      1.197282      0.385953
Au     17.42676     15.91593     15.60438         0.974761     -0.246962      0.615010
Au     15.81876     17.30376     17.28948         0.497673      0.511821      1.119204
Au     13.29057     16.16490     17.11311        -0.342475      0.398931      1.273736
Au     11.25984     14.88519     15.97152        -1.412279     -0.588555      0.663509
Au     13.92024     18.65421     16.06167        -0.462634      1.180742      0.361464
Au     15.55542     14.66976     17.24946         0.233018     -0.726199      1.241437
Au     13.61295     13.70205     15.61422        -0.111308     -1.358446      0.205426
Au     16.31385     13.52163     14.98770         0.711411     -1.114725      0.130853
