19
# total energy = -47.25340974 eVAu     12.99664     13.00002     13.60524        -0.029006     -0.064715     -0.018371
Au     10.79330     14.69090     13.89030        -0.036943     -0.002458      0.066614
Au     14.02919     17.48606     12.82230         0.070909     -0.003649      0.023956
Au     15.16909     14.85491     13.39024         0.042649      0.061389      0.008920
Au     16.59664     17.19643     13.85042        -0.163634     -0.057928      0.060985
Au     11.18257     17.18688     12.70172        -0.061517      0.014580     -0.035484
Au     12.81698     15.14097     11.91346         0.020953     -0.006196     -0.069342
Au     12.30016     19.08984     14.31683         0.010703      0.066946     -0.025655
Au     10.46840     17.17247     15.40060        -0.026882     -0.063704      0.028023
Au     13.10688     15.96077     15.13016        -0.000206     -0.000327     -0.000200
Au     14.70966     18.36451     15.52613         0.054079     -0.028548     -0.045209
Au     15.84963     15.73325     16.09407         0.024572      0.040162     -0.059414
Au     14.34844     17.11763     17.99800         0.049523      0.029786      0.043807
Au     11.75569     15.93297     17.71405        -0.059772     -0.033108     -0.030738
Au      9.61730     14.72518     16.40994         0.164399      0.058287     -0.061256
Au     12.26551     18.58461     17.00402        -0.042545      0.040270      0.046158
Au     14.07960     14.39776     17.90765        -0.008517     -0.038646      0.060842
Au     12.08054     13.45132     16.20376        -0.068164      0.030017      0.007331
Au     14.86532     13.16864     15.59462         0.059400     -0.042158     -0.000966
