19
# total energy = -47.36317597 eVAu     15.18566     15.18206     15.28017        -0.018406      0.033348      0.010622
Au     15.18247     13.07462     13.43238        -0.003814     -0.005323      0.008489
Au     16.94460     17.24212     14.08512         0.005169     -0.033787     -0.005194
Au     17.67383     14.47494     13.72053        -0.022296      0.019860      0.023014
Au     19.47257     16.30938     14.82429        -0.031809     -0.005608      0.012550
Au     13.08188     15.18358     13.30565         0.020849     -0.013769     -0.005793
Au     15.60399     15.56229     12.21274        -0.008680      0.000731     -0.000633
Au     14.32753     17.72741     13.46785         0.002964      0.008689     -0.008724
Au     12.57794     17.05866     15.45971         0.031117      0.023084      0.007318
Au     17.93030     17.84324     16.62089         0.024640      0.001505     -0.019219
Au     17.91131     14.97713     16.60247         0.008163     -0.016633     -0.005478
Au     16.36411     16.49069     18.41306        -0.036483      0.006574     -0.000978
Au     13.73258     15.97262     17.76490         0.013411      0.001239      0.016804
Au     12.44681     14.30412     15.81426         0.039746     -0.020670     -0.009468
Au     13.16807     13.26381     18.32273        -0.023502      0.000027     -0.003741
Au     15.15434     17.90933     16.23007        -0.020416     -0.001463     -0.003047
Au     15.77857     13.83483     17.82698         0.010294     -0.009302      0.031824
Au     14.28917     12.24897     15.93744         0.031905     -0.011662      0.001743
Au     16.99514     12.54351     15.60030        -0.022852      0.023162     -0.050088
