19
# total energy = -47.40830988 eVAu     14.89004     14.18224     11.80887         0.002499     -0.010619     -0.006894
Au     12.20867     14.83454     11.85108         0.003103      0.002440     -0.004472
Au     15.94444     18.69005     10.88733        -0.005046     -0.006631      0.007101
Au     16.70316     16.16799     11.89385         0.006159      0.009935      0.001741
Au     18.46353     18.29124     12.08118         0.003935      0.000561     -0.002253
Au     11.66000     17.51314     11.90140         0.002597      0.002633     -0.004643
Au     14.05956     16.68246     10.72464        -0.007517     -0.003139      0.014943
Au     13.70922     19.36351     12.35675        -0.005316     -0.013888      0.009663
Au     11.68553     18.84184     14.29151         0.001534      0.001862     -0.004452
Au     14.35330     16.86649     13.54148         0.010685      0.002601     -0.002819
Au     16.32610     19.06057     13.65552         0.003231     -0.002698     -0.002621
Au     17.84721     16.80356     14.39124        -0.009911      0.001313     -0.004103
Au     15.68233     17.40374     15.99221        -0.015627     -0.004470     -0.008376
Au     12.89421     17.64434     16.52125         0.005447     -0.002058      0.001133
Au     11.86272     15.99931     14.43092         0.010771      0.003808     -0.003741
Au     14.17387     19.66937     15.15092         0.001936      0.011703      0.006084
Au     14.02344     15.16688     16.26117         0.004149     -0.001203      0.003598
Au     13.41842     13.63418     14.07846         0.004060      0.001837      0.001286
Au     16.03125     14.72793     14.36177        -0.016689      0.006012     -0.001177
