19
# total energy = -47.27068702 eVAu     12.98602     12.98439     13.60315         0.032404     -0.002651     -0.020361
Au     10.80227     14.69351     13.88427        -0.006552     -0.003626     -0.006548
Au     14.01818     17.48388     12.82438         0.000923      0.003382     -0.010775
Au     15.15977     14.84938     13.39259         0.001798     -0.006856     -0.007991
Au     16.56032     17.18361     13.86400        -0.006979     -0.001198      0.000145
Au     11.16577     17.18840     12.69552         0.018916      0.018851     -0.023655
Au     12.82495     15.14109     11.89764        -0.029209     -0.016799     -0.004298
Au     12.30652     19.10526     14.31022        -0.036009      0.007401      0.008068
Au     10.47771     17.17845     15.39665        -0.007938      0.006409     -0.001453
Au     13.10659     15.96047     15.12990         0.000406     -0.001641     -0.001113
Au     14.69926     18.36254     15.53054         0.003055      0.009474      0.006971
Au     15.84061     15.72927     16.09909         0.007574     -0.005258      0.007446
Au     14.36299     17.12514     18.00581        -0.024996     -0.002854      0.026389
Au     11.76617     15.93735     17.71219         0.000499      0.000536      0.011681
Au      9.65402     14.73839     16.39639         0.005264      0.002167     -0.003316
Au     12.25284     18.59181     17.01542         0.027091      0.024854     -0.001081
Au     14.07407     14.38848     17.92228         0.036275      0.001216      0.000823
Au     12.09151     13.45243     16.20061        -0.000372     -0.008478      0.004567
Au     14.88200     13.16129     15.59286        -0.022149     -0.024929      0.014499
