19
# total energy = -47.13291957 eVAu     15.51156     15.28884     15.35237         0.019248     -0.041321     -0.064148
Au     15.40089     13.02307     13.30426         0.049884     -0.023709     -0.019393
Au     17.00882     17.33143     13.96655         0.019707     -0.007089      0.063716
Au     17.81152     14.50121     13.72797        -0.013535     -0.016722     -0.029793
Au     19.54518     16.40500     14.76110        -0.150583     -0.051590      0.100452
Au     13.24465     14.85745     13.70529        -0.004716      0.049592     -0.061124
Au     15.64118     15.53768     12.25417        -0.054466     -0.011553     -0.023677
Au     14.30767     17.57080     13.51884        -0.033867      0.014224     -0.066713
Au     12.54483     17.00812     15.49630        -0.024076      0.064046     -0.017130
Au     17.92182     17.83364     16.54683        -0.015158     -0.039277     -0.063663
Au     18.06300     14.92285     16.63936         0.028648      0.029580      0.033602
Au     16.33736     16.41970     18.26849         0.070725      0.039472      0.103786
Au     13.75171     15.82134     17.66381        -0.089143      0.020906      0.087086
Au     11.80421     14.41112     16.07334         0.149462      0.005643      0.000075
Au     13.07097     13.17311     18.26097         0.132592      0.088112     -0.100216
Au     15.12807     17.95882     16.19996        -0.043571     -0.002091      0.043402
Au     15.76898     13.73682     17.87793         0.001085      0.013198      0.017751
Au     14.06360     12.79149     15.68945        -0.022128     -0.071554      0.037947
Au     16.89484     12.61084     15.61451        -0.020107     -0.059868     -0.041960
