19
# total energy = -45.68210943 eVAu     17.87301     17.13276     12.78570         0.440211      1.181243     -0.648048
Au     18.50679     14.63481     11.97540         0.714850     -0.696779     -1.178062
Au     16.13304     13.41366     12.41949        -0.109708     -1.160112     -0.714411
Au     13.63719     16.23942     11.84814        -0.667419      0.088952     -1.188222
Au     16.19769     15.73251     11.08875        -0.076597     -0.026852     -1.364166
Au     13.57254     13.92054     13.17891        -0.699088     -1.041104     -0.538740
Au     15.49221     18.17754     11.94354        -0.039462      1.003871     -0.801196
Au     13.64031     14.92383     15.75495        -0.331521     -1.035004      0.911248
Au     17.78865     14.10243     14.52468         0.372916     -1.172712      0.704927
Au     11.92986     15.93717     13.92588        -1.418457     -0.274684     -0.547069
Au     15.60048     15.81300     13.88751        -0.033181     -0.046643     -0.081359
Au     15.34671     12.94917     14.94387        -0.100210     -1.195562      0.462956
Au     13.72467     17.95422     14.01591        -0.264734      1.322442     -0.438598
Au     15.08346     17.22729     16.32699         0.467988      0.594445      1.055342
Au     12.39264     17.22834     16.19826        -1.059813      0.769395      1.287475
Au     16.22013     14.80251     16.65153         0.296941     -0.262596      1.178304
Au     16.32807     18.68106     14.42580         0.335889      1.135662      0.374729
Au     17.78151     16.69305     15.52689         0.402604      0.606827      1.076375
Au     19.79784     15.76194     14.00220         1.768791      0.209210      0.448514
