19
# total energy = -47.44940655 eVAu     14.65718     13.50995     12.72331        -0.005386      0.027922      0.007395
Au     12.27709     14.80031     13.45121         0.053322     -0.013500      0.023463
Au     16.33277     17.94062     12.03777        -0.027777     -0.031270      0.044278
Au     16.74846     15.28867     12.92406        -0.049026     -0.014064     -0.002018
Au     18.55740     17.25264     13.65015         0.023205      0.014696     -0.018935
Au     11.72578     17.23393     12.20801         0.012423     -0.000375      0.004604
Au     14.25017     16.11125     11.81526         0.020539     -0.012640      0.040269
Au     13.93104     18.55104     13.29862         0.019583     -0.026431      0.032203
Au     11.94576     17.32692     14.98606         0.051842     -0.004635      0.027569
Au     14.53546     16.02693     14.80118         0.008981      0.022779     -0.037042
Au     16.33826     18.41656     14.82477        -0.044306     -0.000584      0.002084
Au     17.34089     15.85215     15.69167        -0.107518     -0.041634      0.049299
Au     15.86666     17.41434     17.43073        -0.021600     -0.042759     -0.053608
Au     13.19058     16.76630     17.53521         0.011592      0.008753     -0.028807
Au     11.85709     14.81266     16.22178         0.088585      0.009076      0.006620
Au     13.94028     18.98533     16.05027        -0.001053     -0.015235     -0.024881
Au     15.09219     14.66714     17.15775        -0.006940      0.032725     -0.052461
Au     13.67636     13.04749     15.27715         0.013344      0.025633     -0.024974
Au     16.39746     13.35811     14.96715        -0.039810      0.061542      0.004941
