19
# total energy = -43.68582617 eVAu     13.90835     12.31975     13.86481         0.053759      0.005206     -0.040379
Au     12.16596     19.46629     13.86401        -0.030724     -0.053586     -0.047810
Au     19.22593     17.40252     13.86411        -0.052534      0.026770     -0.031260
Au     11.24596     16.87999     13.41054         0.021042      0.005152      0.018312
Au     17.44541     19.48994     13.41158         0.000130     -0.015563      0.005827
Au     16.60687     12.81775     13.41348        -0.017380     -0.015531     -0.008678
Au     17.47513     15.33088     13.97121        -0.007662     -0.021736      0.011925
Au     12.99180     14.86771     13.97109        -0.046872      0.066342      0.007412
Au     14.83019     18.98505     13.97137         0.078261      0.002209     -0.003108
Au     16.29037     20.47169     15.82679        -0.053759     -0.005206      0.040379
Au     18.03276     13.32515     15.82759         0.030724      0.053586      0.047810
Au     10.97279     15.38892     15.82749         0.052534     -0.026770      0.031260
Au     15.09936     16.39572     14.84580         0.000000     -0.000000     -0.000000
Au     18.95276     15.91145     16.28106        -0.021042     -0.005152     -0.018312
Au     12.75331     13.30147     16.28002        -0.000130      0.015563     -0.005827
Au     13.59185     19.97366     16.27812         0.017380      0.015531      0.008678
Au     12.72362     17.46056     15.72039         0.007662      0.021736     -0.011925
Au     17.20692     17.92373     15.72051         0.046872     -0.066342     -0.007412
Au     15.36853     13.80636     15.72023        -0.078261     -0.002209      0.003108
