19
# total energy = -46.38633626 eVAu     12.98758     15.91284     13.08508        -0.470653      0.000000     -0.470653
Au     15.00216     13.89826     13.08508        -0.000000     -0.470653     -0.470653
Au     17.01677     15.91284     13.08508         0.470653      0.000000     -0.470653
Au     15.00216     15.91284     11.26908        -0.000000      0.000000     -0.505593
Au     15.00216     17.92745     13.08508        -0.000000      0.470653     -0.470653
Au     12.98758     15.91284     17.11427        -0.470653      0.000000      0.470653
Au     12.98758     13.89826     15.09969        -0.470653     -0.470653     -0.000000
Au     11.17155     15.91284     15.09969        -0.505593      0.000000     -0.000000
Au     15.00216     13.89826     17.11427        -0.000000     -0.470653      0.470653
Au     17.01677     15.91284     17.11427         0.470653      0.000000      0.470653
Au     17.01677     13.89826     15.09969         0.470653     -0.470653     -0.000000
Au     18.83277     15.91284     15.09969         0.505593      0.000000     -0.000000
Au     15.00216     12.08223     15.09969        -0.000000     -0.505593     -0.000000
Au     15.00216     15.91284     18.93030        -0.000000      0.000000      0.505593
Au     15.00216     15.91284     15.09969        -0.000000      0.000000     -0.000000
Au     12.98758     17.92745     15.09969        -0.470653      0.470653     -0.000000
Au     15.00216     17.92745     17.11427        -0.000000      0.470653      0.470653
Au     17.01677     17.92745     15.09969         0.470653      0.470653     -0.000000
Au     15.00216     19.74345     15.09969        -0.000000      0.505593     -0.000000
