19
# total energy = -47.12815931 eVAu     15.56380     14.06930     12.01762        -0.029998     -0.008433     -0.010705
Au     12.96418     14.20452     12.91858         0.014205     -0.010312     -0.025111
Au     16.58522     16.83271     11.88911        -0.001964      0.005852      0.009384
Au     18.08392     14.72889     12.91503         0.047260      0.008457     -0.013261
Au     18.93274     17.38128     13.39069        -0.004645      0.013429      0.004258
Au     12.34263     17.05382     13.35884         0.007166      0.004459      0.009739
Au     13.94729     16.20209     11.24414        -0.005450     -0.044619     -0.010239
Au     14.52979     18.58429     12.56893         0.009239      0.002212      0.021398
Au     11.48843     17.77011     15.97170         0.009306      0.009916     -0.000449
Au     14.97558     15.84771     14.26528        -0.002820     -0.023084     -0.005324
Au     16.60808     18.28900     14.41985        -0.019948      0.040553      0.016466
Au     17.76896     15.81575     15.45343        -0.008680      0.008521      0.000159
Au     15.99367     17.32793     16.97485        -0.004446      0.007530     -0.017376
Au     13.52744     16.03682     16.92468         0.002680      0.009626     -0.006617
Au     11.61201     15.06708     15.15992        -0.041592      0.012818      0.016628
Au     14.02430     18.42367     15.31661         0.028482      0.037305     -0.001036
Au     15.87742     14.54292     17.05925        -0.004195     -0.038192     -0.009264
Au     13.82589     13.46449     15.51405         0.021340     -0.017963      0.002779
Au     16.42505     13.32954     14.61290        -0.015940     -0.018072      0.018571
