19
# total energy = -47.06960153 eVAu     17.94871     17.29418     12.70339        -0.003332     -0.064509      0.032046
Au     18.49899     14.62265     11.95442         0.049871      0.043535      0.081588
Au     16.11966     13.29321     12.35159        -0.065204     -0.018708      0.034920
Au     13.57237     16.25300     11.72655         0.064194      0.017051     -0.042227
Au     16.18837     15.73532     10.94940        -0.060935      0.041699     -0.001733
Au     13.50322     13.81037     13.12778         0.064052     -0.047646     -0.004089
Au     15.48596     18.26902     11.86035        -0.020815     -0.012741     -0.059452
Au     13.58661     14.79204     15.88988         0.001791      0.059923     -0.036708
Au     17.85579     13.94715     14.62480        -0.005074      0.060594     -0.037320
Au     11.92087     15.92563     13.90504         0.012827      0.052423      0.092131
Au     15.57310     15.77492     13.81952         0.009227      0.012391      0.022464
Au     15.33417     12.83116     14.98084        -0.017096     -0.041756     -0.041507
Au     13.67942     18.13990     13.96943        -0.000893     -0.062918      0.031691
Au     15.13684     17.25390     16.37471        -0.097508     -0.022759     -0.040930
Au     12.38469     17.29087     16.30804         0.084399      0.000883      0.004937
Au     16.24282     14.75008     16.76443        -0.000796     -0.068963      0.038796
Au     16.35625     18.80366     14.43759         0.000653      0.074790     -0.041074
Au     17.77474     16.73189     15.59287         0.048758     -0.053837     -0.082752
Au     19.88420     15.80629     14.08378        -0.064120      0.030548      0.049219
