19
# total energy = -47.07378488 eVAu     14.45149     12.68120     13.51434         0.231862      0.344655      0.254336
Au     12.27662     14.09535     14.34101        -0.141689     -0.128482     -0.080812
Au     16.69507     16.91254     12.47411        -0.075041     -0.162787     -0.005982
Au     16.77933     14.37363     13.52758        -0.032688     -0.256699     -0.017755
Au     18.70545     16.27325     14.27226        -0.030161      0.078048     -0.030482
Au     12.12356     16.77187     13.66548        -0.287551      0.073342     -0.080196
Au     14.23669     15.35263     12.60553         0.180808     -0.073591     -0.019652
Au     14.46618     18.10327     13.45856         0.035120      0.152185      0.067595
Au     11.13963     16.06390     16.11187        -0.097366      0.194918      0.021750
Au     14.78633     15.03170     15.45457         0.087032     -0.276846     -0.051911
Au     16.39207     17.45734     15.35182         0.055575      0.066952     -0.025264
Au     17.54999     15.02212     16.44365        -0.098205      0.023536     -0.030063
Au     15.56904     16.59545     17.82018        -0.170412     -0.138425     -0.049319
Au     13.10323     15.12910     17.77286         0.231701      0.083499      0.223823
Au     11.10452     13.41214     16.82572        -0.423502     -0.034453      0.045600
Au     13.56584     17.45509     16.06566        -0.013822      0.340232     -0.013810
Au     15.55481     13.83402     18.05964        -0.048390     -0.195794     -0.035101
Au     13.56726     12.47444     16.35586         0.467184      0.016648     -0.211068
Au     16.26671     12.58950     15.63297         0.129544     -0.106937      0.038311
