19
# total energy = -47.28515748 eVAu     15.38699     15.18937     15.33063         0.007917      0.010158      0.008297
Au     15.39158     12.99435     13.24926        -0.022967     -0.001519      0.070027
Au     16.92861     17.26285     14.02900        -0.052641     -0.009328     -0.000275
Au     17.74259     14.50199     13.69086        -0.050672     -0.009471     -0.017591
Au     19.43951     16.31064     14.88193         0.035112      0.015340      0.025723
Au     13.23309     14.91966     13.56267        -0.032820      0.029371     -0.034140
Au     15.59247     15.53667     12.18718         0.017860      0.027972      0.016144
Au     14.25054     17.60196     13.45169         0.029697     -0.014059      0.016663
Au     12.51812     17.15983     15.49195         0.041475     -0.067220      0.016729
Au     17.88153     17.84150     16.59368        -0.017395      0.006153     -0.016067
Au     17.98029     14.91442     16.70498        -0.021445      0.015678     -0.028580
Au     16.35936     16.47128     18.39846         0.030509     -0.027347     -0.016300
Au     13.78245     15.94721     17.73169        -0.034668      0.023490     -0.002601
Au     12.15961     14.47294     16.02726         0.018778      0.002400     -0.099198
Au     13.16953     13.20963     18.29860         0.005291     -0.004961      0.013662
Au     15.12029     17.93629     16.17801         0.027996     -0.058183      0.042278
Au     15.78454     13.76027     17.85486         0.033525      0.074756     -0.028592
Au     14.15742     12.59725     15.70126         0.016437     -0.004052      0.014459
Au     16.94231     12.57519     15.55754        -0.031992     -0.009176      0.019360
