19
# total energy = -47.34795655 eVAu     13.95390     13.95267     13.25609         0.005634     -0.014147      0.000393
Au     11.21953     14.35751     12.91899        -0.007856      0.048494     -0.002297
Au     16.52693     18.55953     11.88488         0.011885     -0.010390     -0.028610
Au     15.59015     15.90399     11.98617         0.019872      0.006114      0.029271
Au     17.10272     17.03712     14.18339         0.011468      0.034772     -0.004376
Au     11.59044     17.19981     13.35569         0.003544      0.003679      0.019420
Au     12.91484     15.80696     11.31300         0.031107     -0.008745      0.031004
Au     16.59402     14.32151     14.08392         0.001415      0.007908      0.042515
Au     13.84114     18.26401     12.27011        -0.020284     -0.033885      0.009069
Au     11.84741     17.24874     16.24421         0.007890      0.025337     -0.015978
Au     14.30412     16.49225     14.60070        -0.110341     -0.015608      0.000521
Au     15.50891     19.28602     14.39683        -0.013992      0.026937      0.029111
Au     16.29260     15.97405     16.57580         0.047516      0.011006     -0.045092
Au     14.42724     18.30375     16.77207         0.051571     -0.018497     -0.018476
Au     13.72517     15.72011     17.60252         0.045759     -0.001536      0.026643
Au      9.88015     15.78520     14.93731        -0.030698      0.031910     -0.051378
Au     12.78888     19.36089     14.68299        -0.043011     -0.074367      0.009808
Au     14.80405     13.64631     16.03368         0.012479     -0.035781     -0.011534
Au     12.27454     14.49528     15.50207        -0.023959      0.016802     -0.020014
