19
# total energy = -47.46139475 eVAu     18.45264     18.87480     12.35179        -0.032685     -0.033327      0.032894
Au     18.72347     14.24935     13.20503        -0.015472     -0.026085      0.017862
Au     13.66047     16.90343     14.09605         0.027921      0.017512      0.021809
Au     16.24220     13.75317     12.29063         0.007720     -0.015117     -0.067296
Au     14.72530     15.98527     11.72987        -0.031098     -0.016137      0.025858
Au     17.50816     16.31622     11.74997        -0.007813     -0.032436      0.034662
Au     13.99114     14.13341     13.80011         0.025071      0.003280     -0.001884
Au     19.30607     16.85072     14.07639        -0.028011     -0.038288      0.009009
Au     15.73118     18.36612     12.72831        -0.016169      0.050473     -0.027455
Au     14.44140     15.17144     16.30216         0.017374      0.023629     -0.017571
Au     19.00181     14.57389     15.86144         0.069020      0.003014      0.011180
Au     16.52334     16.14258     14.46994        -0.021620     -0.002486      0.017471
Au     16.46073     13.45559     15.13648         0.014226      0.020708     -0.016796
Au     14.72116     19.29009     15.13935        -0.014321     -0.001288      0.011212
Au     15.91955     17.57548     17.01905        -0.016279      0.004104     -0.034841
Au     13.15075     17.57144     16.74844         0.033397      0.001471     -0.026676
Au     16.88447     14.99433     17.54376         0.007345     -0.002167     -0.023869
Au     17.45760     18.87972     14.96277         0.010729      0.058424      0.005570
Au     18.62779     17.14589     16.77939        -0.029336     -0.015285      0.028860
