19
# total energy = -43.68497117 eVAu     13.90909     12.31778     13.86775         0.040863      0.009819     -0.041664
Au     12.16367     19.46635     13.86681        -0.018649     -0.043224     -0.047118
Au     19.22702     17.40408     13.86714        -0.045649      0.017129     -0.034037
Au     11.24803     16.88098     13.40556         0.018613     -0.000875      0.019290
Au     17.44524     19.48789     13.40643        -0.004900     -0.011717      0.009661
Au     16.60507     12.81861     13.40812        -0.010620     -0.007868     -0.002151
Au     17.47560     15.33069     13.97537        -0.006071     -0.019023      0.001963
Au     12.99090     14.86799     13.97519        -0.038768      0.053248     -0.001248
Au     14.83078     18.98564     13.97537         0.063288      0.002798     -0.009925
Au     16.28963     20.47366     15.82385        -0.040863     -0.009819      0.041664
Au     18.03505     13.32509     15.82479         0.018649      0.043224      0.047118
Au     10.97170     15.38736     15.82446         0.045649     -0.017129      0.034037
Au     15.09936     16.39572     14.84580        -0.000000     -0.000000      0.000000
Au     18.95069     15.91046     16.28604        -0.018613      0.000875     -0.019290
Au     12.75348     13.30352     16.28517         0.004900      0.011717     -0.009661
Au     13.59365     19.97280     16.28348         0.010620      0.007868      0.002151
Au     12.72315     17.46075     15.71623         0.006071      0.019023     -0.001963
Au     17.20782     17.92345     15.71641         0.038768     -0.053248      0.001248
Au     15.36794     13.80577     15.71623        -0.063288     -0.002798      0.009925
