19
# total energy = -47.24075166 eVAu     14.52736     12.78840     13.61073         0.066769     -0.022317      0.010929
Au     12.21518     14.09728     14.32247         0.024848     -0.009690     -0.036796
Au     16.62898     16.82545     12.47957        -0.023603     -0.014101     -0.008224
Au     16.86095     14.28260     13.52084        -0.001555     -0.068950      0.068433
Au     18.67898     16.29045     14.25731         0.014265      0.021504     -0.009794
Au     12.06837     16.77278     13.63931        -0.063414      0.103843     -0.029806
Au     14.24425     15.38876     12.63137        -0.004168     -0.087313     -0.007876
Au     14.44752     18.14349     13.47666        -0.017122      0.079204     -0.037739
Au     11.16954     16.12737     16.14202        -0.075463      0.055337      0.012884
Au     14.78217     14.99216     15.44462         0.046743      0.032434      0.004707
Au     16.38526     17.47595     15.34741        -0.057227      0.006328      0.000606
Au     17.50423     15.03777     16.42765         0.021521     -0.002775     -0.011576
Au     15.50393     16.52780     17.78067        -0.051178     -0.021893      0.007831
Au     13.10707     15.13397     17.81014         0.075023     -0.052348      0.048107
Au     11.07544     13.44535     16.81251        -0.025392      0.019404     -0.001184
Au     13.55397     17.53445     16.03672         0.084385      0.001611      0.026132
Au     15.54753     13.73767     18.03950        -0.039033     -0.012657     -0.022596
Au     13.62024     12.51532     16.29908         0.049158     -0.051781      0.005982
Au     16.41287     12.51152     15.67511        -0.024558      0.024160     -0.020020
