19
# total energy = -47.25807532 eVAu     14.56323     12.77643     13.62221        -0.006864      0.004257      0.009181
Au     12.23893     14.12653     14.31395         0.004522      0.001222     -0.006378
Au     16.58127     16.77678     12.48151         0.003594      0.001230     -0.008272
Au     16.89846     14.25640     13.55820         0.002914      0.000994      0.005937
Au     18.66387     16.32931     14.25490        -0.000011      0.007720     -0.000183
Au     12.04306     16.82600     13.64822         0.001563      0.003157      0.002205
Au     14.20382     15.36848     12.64394        -0.001369      0.001320      0.010624
Au     14.42928     18.17088     13.44236         0.001368     -0.005574     -0.009160
Au     11.18065     16.17316     16.16259        -0.009424     -0.002602      0.008188
Au     14.80664     14.97974     15.44938         0.003840      0.014623     -0.005463
Au     16.35385     17.48274     15.33721        -0.000068     -0.006482      0.002399
Au     17.51496     15.04675     16.42940         0.000252      0.000147      0.005041
Au     15.49182     16.50682     17.78608         0.002709     -0.005225     -0.008420
Au     13.11354     15.09546     17.80815        -0.002488     -0.009784     -0.002216
Au     11.06955     13.46885     16.77049        -0.001881      0.004081     -0.004324
Au     13.58243     17.54127     16.02755         0.001403     -0.012563      0.001100
Au     15.54477     13.71413     18.03655         0.005421      0.001818     -0.001164
Au     13.62176     12.49427     16.28783         0.006902      0.000695      0.000622
Au     16.43194     12.49456     15.69317        -0.012384      0.000968      0.000283
