19
# total energy = -47.27518619 eVAu     12.99056     12.97914     13.59774         0.015921      0.007354     -0.002634
Au     10.80604     14.69392     13.87766         0.001778      0.002313      0.008602
Au     14.01096     17.48380     12.82187         0.002404     -0.001146      0.008283
Au     15.15445     14.84309     13.39140         0.005228      0.009130      0.006280
Au     16.54777     17.17951     13.86807        -0.001449     -0.000710      0.000913
Au     11.16533     17.19331     12.68807         0.020742      0.003237     -0.003568
Au     12.82033     15.13711     11.89206        -0.019845     -0.001295      0.007177
Au     12.29983     19.11154     14.31027        -0.013516     -0.010259      0.006717
Au     10.48095     17.18490     15.39352         0.004101     -0.008472      0.004286
Au     13.10658     15.95993     15.12951         0.000021      0.000832     -0.000458
Au     14.69340     18.36492     15.53584         0.002707     -0.009132     -0.007879
Au     15.83749     15.72476     16.10525        -0.001677      0.006173     -0.010878
Au     14.36131     17.12666     18.01436        -0.016154     -0.008439      0.005613
Au     11.77314     15.94060     17.71525        -0.005084     -0.003304     -0.009692
Au      9.66628     14.74289     16.39154         0.000421      0.000392      0.001464
Au     12.25562     18.59983     17.01853         0.014374      0.002996     -0.009825
Au     14.08111     14.38607     17.92676         0.015522      0.008293     -0.005127
Au     12.09876     13.44987     16.20004        -0.007954      0.007795     -0.001748
Au     14.88163     13.15325     15.59579        -0.017541     -0.005759      0.002476
