19
# total energy = -47.25333082 eVAu     14.55398     12.77649     13.62644         0.004755      0.008495     -0.008315
Au     12.22794     14.10962     14.30820         0.032579      0.043948      0.017456
Au     16.59963     16.79594     12.48623        -0.037260      0.010446      0.002472
Au     16.89142     14.26163     13.54535        -0.022505     -0.024552      0.007670
Au     18.67288     16.30297     14.24935         0.009887      0.043698      0.007837
Au     12.04879     16.81161     13.63435         0.022042     -0.024053      0.044592
Au     14.22931     15.36883     12.64081        -0.056335      0.013533      0.007391
Au     14.43061     18.17571     13.45510         0.012056     -0.038106     -0.013960
Au     11.16853     16.15906     16.15310         0.045320      0.020810     -0.025026
Au     14.79455     15.00507     15.43946         0.003877     -0.068302      0.023771
Au     16.36059     17.48026     15.34071         0.007215     -0.005953      0.003249
Au     17.51163     15.04241     16.42372        -0.029129      0.007410      0.027756
Au     15.48812     16.51081     17.78946         0.011128     -0.030015     -0.018223
Au     13.10603     15.10323     17.82175         0.039943      0.025630     -0.022982
Au     11.08541     13.47063     16.80104        -0.040548     -0.025811     -0.035222
Au     13.57283     17.53513     16.03419        -0.025073      0.014868     -0.013638
Au     15.53732     13.71631     18.02927         0.023865      0.024532      0.003935
Au     13.62778     12.49966     16.29388        -0.006563      0.006947     -0.027468
Au     16.42646     12.50318     15.68126         0.004745     -0.003524      0.018706
