19
# total energy = -47.32948321 eVAu     13.96289     13.96631     13.23498        -0.019568     -0.043327      0.069395
Au     11.21541     14.36148     12.94921         0.035026      0.000944     -0.068249
Au     16.57262     18.55862     11.88477        -0.101905      0.025434      0.018097
Au     15.57691     15.93874     12.01712         0.022053     -0.084637     -0.042944
Au     17.16333     16.99996     14.14102        -0.051969      0.012685      0.010549
Au     11.57638     17.20370     13.37582         0.017743      0.021219     -0.157282
Au     12.89047     15.82893     11.32906         0.047960     -0.040709     -0.006436
Au     16.59826     14.29146     14.07651         0.018830      0.059805      0.009184
Au     13.85961     18.26752     12.25963        -0.037816      0.016901      0.025673
Au     11.83815     17.24349     16.21790        -0.009679     -0.034893      0.138496
Au     14.24191     16.51169     14.59716         0.059907     -0.036461     -0.001448
Au     15.53222     19.21085     14.43720        -0.016007      0.025103     -0.034896
Au     16.26680     16.05398     16.52803         0.004346     -0.057253     -0.003720
Au     14.37352     18.31230     16.79784         0.052480     -0.010201      0.019964
Au     13.73284     15.70406     17.62450         0.014831      0.055622     -0.053575
Au      9.85735     15.76835     14.93137         0.043353      0.040224      0.006611
Au     12.79418     19.35678     14.64728         0.021733      0.014240      0.077114
Au     14.83560     13.65312     16.03975        -0.016526      0.016856      0.008910
Au     12.29828     14.48436     15.51126        -0.084795      0.018448     -0.015442
