19
# total energy = -45.63689322 eVAu     14.06781     13.90646     13.24213         0.018125     -0.776458     -0.436977
Au     11.39074     14.51635     13.15924        -0.590971     -1.101365     -0.836311
Au     16.59137     18.56186     12.04015         0.411387      0.762959     -0.941131
Au     15.59361     16.08544     12.28455         0.127924     -0.488477     -0.965867
Au     17.64801     16.94051     13.91143         1.106844      0.081612      0.280047
Au     11.42529     17.28238     13.34186        -0.561950      0.686985     -1.197389
Au     13.00339     15.86661     11.59011         0.040314      0.021848     -1.243001
Au     16.64045     14.46788     14.13738         0.766327     -0.954658     -0.129729
Au     13.89359     18.31283     12.31104        -0.455491      0.609356     -0.681406
Au     11.74837     17.33402     16.05751        -0.958023     -0.815532      2.233780
Au     13.78020     16.34461     14.50662         0.198526     -0.187030     -0.142875
Au     15.56441     18.59508     14.50526         0.466388      0.971345      0.313207
Au     16.07387     16.33353     16.09397         1.563202      0.246894      0.311233
Au     14.25127     18.28555     16.79775         0.035717      0.480669      1.162411
Au     13.92153     15.68810     17.42596        -1.561732      0.748850      1.957686
Au      9.87226     15.76809     14.94328        -1.392330     -0.073545      0.484150
Au     12.86688     19.14880     14.67628         0.243297      2.188367     -0.845131
Au     14.74699     13.87233     15.87734         0.492234     -1.985448     -0.166171
Au     12.10669     14.40525     15.69857         0.050214     -0.416371      0.843475
