19
# total energy = -47.02603310 eVAu     15.58725     14.09501     12.04067        -0.020765      0.012354     -0.028450
Au     12.96230     14.23213     12.95097        -0.000027      0.011972     -0.036715
Au     16.61984     16.79408     11.96449        -0.038120      0.037095     -0.080965
Au     18.20330     14.61204     12.84203        -0.088708      0.070571      0.049571
Au     18.99562     17.25393     13.33310        -0.057381      0.021661      0.025484
Au     12.35993     17.01666     13.44182        -0.018229      0.036731     -0.087589
Au     13.96553     16.22984     11.29286         0.019308      0.010021      0.053798
Au     14.56081     18.58182     12.65538        -0.009103     -0.059091     -0.015943
Au     11.39247     17.65102     15.96982         0.062978      0.014896     -0.017123
Au     14.98845     15.93679     14.28697        -0.011012     -0.071517     -0.017803
Au     16.69222     18.37968     14.41879        -0.082150     -0.036974      0.015908
Au     17.74821     15.82372     15.36446         0.020630     -0.013324      0.093377
Au     15.96926     17.37056     16.89917        -0.007685     -0.060698     -0.013120
Au     13.48827     16.04629     16.84178         0.041304     -0.013502      0.087185
Au     11.46226     14.96409     15.17978         0.107761      0.059226     -0.018227
Au     13.96663     18.52219     15.36409         0.070061     -0.043634     -0.036526
Au     15.86907     14.59300     17.02853        -0.012151      0.038384     -0.042203
Au     13.81009     13.50317     15.50558         0.021443     -0.007640      0.030760
Au     16.43491     13.36591     14.59518         0.001846     -0.006532      0.038580
