19
# total energy = -47.36446597 eVAu     15.18290     15.18823     15.28355        -0.005582      0.008935      0.009235
Au     15.18060     13.07496     13.43595        -0.016729      0.006763     -0.009555
Au     16.94647     17.23626     14.08397        -0.026948      0.008777     -0.002898
Au     17.66954     14.47918     13.72345        -0.011971     -0.001947     -0.013862
Au     19.46665     16.30725     14.82603         0.038219      0.003873     -0.004537
Au     13.08429     15.18442     13.30664         0.001473     -0.011060     -0.011366
Au     15.60073     15.56324     12.21400        -0.000246     -0.003858     -0.019800
Au     14.32916     17.73198     13.46515         0.008692      0.010490     -0.011401
Au     12.58276     17.06154     15.45836         0.006316     -0.006684      0.009552
Au     17.93520     17.84272     16.61859        -0.022225     -0.003401      0.007367
Au     17.91365     14.97475     16.60164        -0.033712     -0.024613      0.046751
Au     16.35737     16.49191     18.41153         0.015729      0.015728     -0.020615
Au     13.73468     15.97188     17.76518        -0.025817     -0.009853      0.017818
Au     12.45526     14.29819     15.81193         0.021400      0.003296     -0.008351
Au     13.16402     13.26336     18.32210        -0.006474      0.000696     -0.007391
Au     15.15106     17.90868     16.22816         0.027547      0.023941      0.004309
Au     15.77910     13.83289     17.83280         0.019703     -0.004617      0.006415
Au     14.29570     12.24371     15.93989         0.003958     -0.019892      0.023213
Au     16.99170     12.54815     15.59258         0.006667      0.003428     -0.014886
