19
# total energy = -47.03466625 eVAu     14.06324     13.82728     13.21006        -0.031216      0.106124     -0.118807
Au     11.33363     14.42558     13.10690        -0.012022     -0.073387     -0.081569
Au     16.59735     18.61004     11.98918         0.020153      0.057950     -0.215094
Au     15.61667     16.04178     12.19638         0.012402     -0.118996     -0.130936
Au     17.72180     16.94552     13.93921         0.061387      0.014894     -0.082264
Au     11.37219     17.33875     13.25584         0.161606      0.066613      0.023358
Au     12.98008     15.86463     11.48495         0.038108     -0.011606     -0.091505
Au     16.69612     14.38777     14.12669         0.087889     -0.094194     -0.086276
Au     13.85942     18.37340     12.25567        -0.109133     -0.070795     -0.065987
Au     11.67937     17.32668     16.16722         0.266254     -0.119613      0.250220
Au     13.78674     16.33307     14.50958         0.021350      0.062120      0.102145
Au     15.61545     18.69081     14.52875        -0.120126      0.129150      0.279374
Au     16.20078     16.34936     16.14387        -0.158257     -0.076778      0.147157
Au     14.24538     18.33499     16.90048        -0.128110     -0.024673     -0.217087
Au     13.87455     15.71182     17.55713        -0.262845      0.002891     -0.194423
Au      9.77659     15.75624     14.96801        -0.007075      0.021287     -0.035555
Au     12.87288     19.33147     14.62845         0.049960     -0.114938      0.137169
Au     14.78508     13.70952     15.89239        -0.089232      0.044491      0.248985
Au     12.10942     14.35698     15.73966         0.198907      0.199461      0.131094
