19
# total energy = -47.39796006 eVAu     14.89381     14.18640     11.81083        -0.009026      0.003355      0.005993
Au     12.22088     14.89711     11.88276        -0.009437     -0.021465     -0.026481
Au     15.97817     18.71864     10.84641        -0.005684      0.003609     -0.006362
Au     16.66352     16.21661     11.94213         0.004542     -0.014181     -0.010132
Au     18.47269     18.29557     12.07787         0.044320      0.014996     -0.015733
Au     11.63065     17.56485     11.80728         0.015007     -0.000560      0.004869
Au     14.07860     16.71208     10.74337        -0.010149     -0.008157     -0.002560
Au     13.73560     19.33648     12.34086        -0.012168      0.003920      0.004359
Au     11.71243     18.78773     14.25022        -0.016969      0.030550      0.005894
Au     14.23130     16.82154     13.58616        -0.010847     -0.003435      0.003732
Au     16.30064     18.99130     13.63085         0.000997      0.015798      0.007411
Au     17.90567     16.80890     14.39866         0.002439     -0.005644      0.008222
Au     15.69985     17.38879     15.96163        -0.009100      0.000155      0.009593
Au     12.91806     17.59310     16.47423        -0.002516      0.016417      0.031024
Au     11.75788     15.96228     14.46737         0.027057      0.010492     -0.008050
Au     14.17683     19.66883     15.14764        -0.008077     -0.008060     -0.001241
Au     14.08942     15.12716     16.34180         0.004757      0.007844     -0.012212
Au     13.42758     13.70101     14.10590         0.003885     -0.035529     -0.001247
Au     16.04345     14.76502     14.36558        -0.009032     -0.010108      0.002921
