19
# total energy = -47.43047029 eVAu     18.42219     18.88391     12.37243         0.025716      0.006344     -0.020617
Au     18.89592     14.28065     13.06494        -0.013673      0.008467      0.007734
Au     13.71649     16.93763     14.14073        -0.058721     -0.050009     -0.045814
Au     16.33868     13.76261     12.37341        -0.024733     -0.010738     -0.033523
Au     14.72311     15.94800     11.78267        -0.034947     -0.003565     -0.035567
Au     17.48141     16.32907     11.77193         0.062276     -0.004931     -0.044077
Au     14.03869     14.12459     13.83278        -0.052887      0.011111     -0.025757
Au     19.27510     16.86277     14.09326         0.059761     -0.005567     -0.047840
Au     15.71153     18.36647     12.74271         0.007956      0.016737     -0.027949
Au     14.39874     15.20786     16.32692        -0.029952      0.011625      0.021855
Au     18.94885     14.53919     15.75113         0.027653      0.004983      0.033475
Au     16.54142     16.04955     14.47777        -0.053220     -0.018004      0.044573
Au     16.40505     13.35875     15.20152         0.017060      0.032760     -0.020904
Au     14.71345     19.38955     15.12253        -0.009893     -0.002171      0.008120
Au     15.88599     17.58291     16.94777         0.034440     -0.021866      0.079490
Au     13.13971     17.66597     16.73498        -0.014102     -0.040467      0.021084
Au     16.86903     14.96621     17.49510         0.005685      0.029490      0.051670
Au     17.43856     18.88009     14.97741         0.024742      0.022977     -0.007300
Au     18.58531     17.09715     16.78095         0.026836      0.012822      0.041347
