19
# total energy = -47.25719799 eVAu     14.56336     12.77289     13.62470        -0.000933      0.006734     -0.006555
Au     12.24097     14.12455     14.31259        -0.012796     -0.001120      0.006606
Au     16.58057     16.78365     12.49035         0.007558     -0.015208     -0.016310
Au     16.89739     14.25380     13.55515         0.001244      0.012621      0.000362
Au     18.66729     16.32174     14.25037        -0.008672      0.008446      0.009157
Au     12.04714     16.82368     13.64291        -0.011235      0.002202      0.012687
Au     14.20720     15.36542     12.64385         0.005924      0.007493     -0.003581
Au     14.42769     18.17475     13.44363         0.004056     -0.005841      0.003590
Au     11.17902     16.17085     16.15616         0.007572      0.001737      0.010168
Au     14.80179     14.98713     15.44573         0.003487     -0.013335      0.000086
Au     16.35355     17.47860     15.34031         0.007476      0.014370     -0.015266
Au     17.51018     15.04906     16.42806         0.018268     -0.007248     -0.000878
Au     15.48832     16.50351     17.78542         0.008801      0.012435      0.015917
Au     13.11214     15.09930     17.81584        -0.007072     -0.007380     -0.016025
Au     11.07631     13.47408     16.78122        -0.006216     -0.010156     -0.017224
Au     13.57967     17.54231     16.02970        -0.006203     -0.002689     -0.007018
Au     15.54335     13.71219     18.03150         0.000452      0.002313      0.015016
Au     13.62480     12.49496     16.28454        -0.009786     -0.000532      0.010823
Au     16.43310     12.49609     15.69164        -0.001924     -0.004844     -0.001553
