19
# total energy = -47.25320356 eVAu     14.54956     12.77984     13.62534         0.008524     -0.009179     -0.015106
Au     12.22568     14.10757     14.30790         0.024985      0.031344      0.031321
Au     16.60463     16.80291     12.48350        -0.030823     -0.017532      0.017061
Au     16.88641     14.26278     13.54299        -0.008617      0.001082     -0.004717
Au     18.67477     16.29948     14.25123        -0.002611      0.042864     -0.001793
Au     12.05185     16.80294     13.63402         0.012448      0.011870      0.037080
Au     14.23132     15.37255     12.64000        -0.035352      0.001235      0.000458
Au     14.43433     18.17125     13.45821        -0.003960     -0.025093     -0.009837
Au     11.16647     16.15550     16.15055         0.047458      0.004969     -0.007648
Au     14.79369     15.00340     15.44048        -0.004971     -0.044405      0.012557
Au     16.36490     17.47970     15.34235        -0.003260     -0.004183     -0.004179
Au     17.50842     15.04017     16.42351        -0.000025      0.017189      0.024093
Au     15.48999     16.51260     17.78733         0.009921     -0.013947     -0.003897
Au     13.10838     15.10739     17.82151         0.005743      0.016874     -0.027272
Au     11.08417     13.46463     16.80500        -0.026183      0.005466     -0.042417
Au     13.56991     17.53483     16.03593        -0.013917      0.010939     -0.020041
Au     15.53765     13.72052     18.02844         0.024809      0.004886      0.022374
Au     13.62736     12.50319     16.29589        -0.009631     -0.006991     -0.028064
Au     16.42431     12.50731     15.67949         0.005463     -0.027388      0.020028
