19
# total energy = -47.13562807 eVAu     17.92416     17.30767     12.70669        -0.006784     -0.006307     -0.000536
Au     18.47066     14.67011     12.03663        -0.011260     -0.004158     -0.004959
Au     16.10131     13.27623     12.33732        -0.003666      0.008364      0.002561
Au     13.57342     16.24518     11.69718         0.005051     -0.005965      0.009079
Au     16.17222     15.73265     10.92639        -0.005697     -0.002859      0.008478
Au     13.50356     13.78937     13.10985         0.005535      0.009833     -0.001372
Au     15.46870     18.28232     11.79421         0.001648     -0.021467      0.019391
Au     13.61181     14.78037     15.88825         0.001514      0.002307     -0.010535
Au     17.83020     13.94429     14.63797        -0.004021      0.002787     -0.010479
Au     12.00081     15.95198     13.95430         0.007885     -0.008410     -0.016723
Au     15.55917     15.75550     13.78391         0.005393      0.008932      0.015612
Au     15.31575     12.76936     14.95968         0.002148      0.025807     -0.008244
Au     13.70524     18.14273     13.95748        -0.000010     -0.011663     -0.003910
Au     15.15718     17.22460     16.32602         0.012169      0.004983      0.007888
Au     12.46531     17.33265     16.38294        -0.002508     -0.001186     -0.004447
Au     16.23616     14.68253     16.78550        -0.001668      0.003069     -0.006052
Au     16.35177     18.85626     14.38944        -0.001063     -0.010220     -0.002051
Au     17.72343     16.71644     15.56459        -0.005326      0.010133      0.012776
Au     19.87594     15.86500     14.18606         0.000661     -0.003980     -0.006477
