19
# total energy = -41.50736968 eVAu     13.64382     12.20512     13.99910         0.174774     -0.424036     -0.129350
Au     12.19807     19.75170     13.99889        -0.456676      0.063053     -0.131055
Au     19.45572     17.23054     13.99886         0.280753      0.363230     -0.129730
Au     11.40645     16.65990     12.82937         0.415418     -0.114241      0.976676
Au     17.17430     19.46199     12.82937        -0.307111     -0.303192      0.977682
Au     16.71685     13.06560     12.83027        -0.108754      0.416416      0.974279
Au     17.70310     15.32494     14.33184        -0.762763     -0.320847      0.226329
Au     12.87080     14.67615     14.33111         0.100413      0.822970      0.227882
Au     14.72440     19.18605     14.33119         0.666138     -0.499468      0.226245
Au     16.55490     20.58632     15.69250        -0.174774      0.424036      0.129350
Au     18.00065     13.03974     15.69271         0.456676     -0.063053      0.131055
Au     10.74300     15.56090     15.69274        -0.280753     -0.363230      0.129730
Au     15.09936     16.39572     14.84580         0.000000     -0.000000      0.000000
Au     18.79227     16.13154     16.86223        -0.415418      0.114241     -0.976676
Au     13.02442     13.32942     16.86223         0.307111      0.303192     -0.977682
Au     13.48187     19.72581     16.86133         0.108754     -0.416416     -0.974279
Au     12.49565     17.46650     15.35976         0.762763      0.320847     -0.226329
Au     17.32792     18.11529     15.36049        -0.100413     -0.822970     -0.227882
Au     15.47432     13.60536     15.36041        -0.666138      0.499468     -0.226245
