19
# total energy = -47.31088711 eVAu     18.39117     18.93802     12.38391         0.015650      0.018458     -0.016465
Au     19.34708     14.46049     12.67493         0.046102     -0.123871     -0.007143
Au     13.62020     16.94890     14.09783        -0.064703     -0.088877     -0.048946
Au     16.66521     13.87233     12.81519         0.032789     -0.083965     -0.055537
Au     14.87177     15.82305     11.83223        -0.081194      0.039879     -0.106886
Au     17.56655     16.36107     11.74834        -0.046989      0.047313     -0.028421
Au     14.10424     14.14875     13.86859        -0.156099     -0.012534     -0.034126
Au     19.31402     16.88114     14.00947         0.003335      0.062561      0.036837
Au     15.69786     18.31186     12.71666         0.025527      0.075819      0.120300
Au     14.28250     15.28237     16.39979        -0.162352      0.078044      0.107647
Au     18.60207     14.44872     15.32115         0.078871     -0.070464      0.005105
Au     16.33907     16.12630     14.61673         0.097069      0.024991     -0.081910
Au     16.08894     13.17517     15.48860         0.114858     -0.097032     -0.065944
Au     14.71436     19.30111     15.14165         0.205541      0.183794     -0.200868
Au     15.89677     17.62643     17.04350         0.047205     -0.054488      0.095930
Au     13.10121     17.78694     16.73670        -0.093737     -0.145678      0.106190
Au     16.84856     14.96572     17.41954        -0.009339      0.029742      0.156846
Au     17.47062     18.83986     15.01037        -0.121846      0.029704     -0.069034
Au     18.60706     16.93471     16.66576         0.069312      0.086604      0.086425
