19
# total energy = -43.67854024 eVAu     13.91131     12.31183     13.87657         0.001129      0.022161     -0.049731
Au     12.15678     19.46654     13.87523         0.017812     -0.010913     -0.050359
Au     19.23032     17.40876     13.87624        -0.024036     -0.014014     -0.047837
Au     11.25425     16.88398     13.39055         0.009308     -0.020895      0.026700
Au     17.44472     19.48170     13.39093        -0.020901      0.001963      0.025606
Au     16.59967     12.82118     13.39200         0.010895      0.013240      0.022900
Au     17.47702     15.33010     13.98789        -0.001172     -0.009838     -0.032685
Au     12.98821     14.86883     13.98752        -0.012834      0.013766     -0.033606
Au     14.83256     18.98740     13.98741         0.018943      0.003024     -0.035543
Au     16.28741     20.47961     15.81503        -0.001129     -0.022161      0.049731
Au     18.04194     13.32490     15.81637        -0.017812      0.010913      0.050359
Au     10.96840     15.38268     15.81536         0.024036      0.014014      0.047837
Au     15.09936     16.39572     14.84580         0.000000      0.000000      0.000000
Au     18.94447     15.90746     16.30105        -0.009308      0.020895     -0.026700
Au     12.75400     13.30971     16.30067         0.020901     -0.001963     -0.025606
Au     13.59905     19.97023     16.29960        -0.010895     -0.013240     -0.022900
Au     12.72173     17.46134     15.70371         0.001172      0.009838      0.032685
Au     17.21051     17.92261     15.70408         0.012834     -0.013766      0.033606
Au     15.36616     13.80401     15.70419        -0.018943     -0.003024      0.035543
