19
# total energy = -47.45078026 eVAu     18.44283     18.87719     12.35858        -0.011503     -0.004459      0.010126
Au     18.79532     14.26804     13.14539        -0.059609     -0.034331      0.053375
Au     13.67820     16.91672     14.11267         0.036673     -0.027511     -0.047072
Au     16.27726     13.75895     12.31802        -0.006110     -0.005601      0.010227
Au     14.72780     15.96877     11.75098        -0.024054      0.019146      0.026471
Au     17.50655     16.32300     11.74886        -0.035618     -0.013988      0.044737
Au     13.99270     14.12725     13.81107         0.083394      0.034760      0.014152
Au     19.30502     16.85800     14.07622        -0.048084     -0.018152      0.027628
Au     15.72479     18.37055     12.73270        -0.009396     -0.021856      0.005232
Au     14.41289     15.18842     16.32034         0.098464     -0.049743     -0.063901
Au     18.98471     14.56431     15.82122        -0.010361     -0.007021      0.005799
Au     16.53017     16.09326     14.47619        -0.008408      0.051726     -0.006041
Au     16.44007     13.41533     15.16159         0.001270      0.064222     -0.015707
Au     14.71335     19.32622     15.13714         0.024785      0.004390     -0.020116
Au     15.90656     17.57938     16.99533         0.053688     -0.019548     -0.016287
Au     13.15256     17.60445     16.73920        -0.053511      0.022190      0.037886
Au     16.87587     14.98512     17.54177         0.002377      0.009087     -0.090601
Au     17.45063     18.88390     14.96648        -0.001920     -0.018347      0.011559
Au     18.61197     17.12410     16.77718        -0.032076      0.015038      0.012531
