19
# total energy = -47.26178421 eVAu     12.99424     12.99438     13.60357        -0.010827     -0.009860      0.001352
Au     10.79004     14.69053     13.89544         0.025500      0.005648     -0.026823
Au     14.03497     17.48597     12.82390        -0.037426     -0.003332     -0.001801
Au     15.17277     14.85965     13.39072        -0.027633     -0.024720      0.002324
Au     16.58386     17.19191     13.85518        -0.022043     -0.007640      0.008343
Au     11.17730     17.18821     12.69855        -0.012874     -0.001391     -0.001167
Au     12.81868     15.14038     11.90742         0.008328      0.001927     -0.008917
Au     12.30097     19.09568     14.31463         0.008316      0.008777     -0.004639
Au     10.46590     17.16756     15.40287         0.023805      0.026184     -0.014076
Au     13.10686     15.96074     15.13014        -0.000427     -0.000440     -0.000392
Au     14.71418     18.36255     15.52258        -0.032246      0.003055      0.018988
Au     15.85196     15.73642     16.08946        -0.022716     -0.017178      0.023358
Au     14.35265     17.12020     18.00190         0.012133      0.005101      0.001631
Au     11.75074     15.93033     17.71194         0.033814      0.015990      0.003851
Au      9.63014     14.72974     16.40515         0.022791      0.008543     -0.008164
Au     12.26192     18.58820     17.00802        -0.010805      0.001605      0.007542
Au     14.07900     14.39441     17.91294        -0.007532     -0.005810      0.009068
Au     12.07497     13.45338     16.20449         0.036570     -0.004931     -0.007700
Au     14.87039     13.16488     15.59459         0.013273     -0.001528     -0.002779
