19
# total energy = -47.27307345 eVAu     13.98699     13.91090     13.31380         0.031819     -0.005520     -0.035124
Au     11.27590     14.38972     12.94492        -0.027904     -0.026379     -0.003237
Au     16.49077     18.62544     11.89006         0.018433     -0.031603      0.034035
Au     15.59898     15.90730     12.05290        -0.025160      0.021684     -0.000431
Au     17.39074     16.91691     13.92904        -0.039761     -0.013059      0.032719
Au     11.51028     17.30425     13.23052        -0.073944     -0.059307      0.047454
Au     12.97123     15.79796     11.33902         0.008938      0.020586     -0.001424
Au     16.65810     14.25439     14.08650         0.004923      0.059401     -0.008346
Au     13.83544     18.29811     12.27859         0.105951      0.052043     -0.043309
Au     11.77682     17.21156     16.33208        -0.004014      0.004636     -0.036017
Au     14.00750     16.49408     14.54822         0.006159     -0.011793      0.043153
Au     15.59322     18.89844     14.57878        -0.010659      0.043491     -0.047708
Au     16.19936     16.28463     16.29970        -0.029106     -0.051593      0.032320
Au     14.29621     18.37024     16.96333        -0.019765     -0.022006     -0.060441
Au     13.77433     15.73590     17.62063         0.047033     -0.029211     -0.020761
Au      9.88779     15.84731     14.83595        -0.042676      0.003460      0.062591
Au     12.82587     19.26235     14.74518         0.039184      0.027374     -0.018770
Au     14.86277     13.74385     16.04458        -0.008139      0.013663      0.022414
Au     12.24444     14.46235     15.56663         0.018690      0.004133      0.000882
