19
# total energy = -47.41279572 eVAu     14.66572     13.47993     12.75053        -0.016895      0.021978      0.005954
Au     12.30615     14.81487     13.45819        -0.033029      0.002599     -0.024453
Au     16.30721     17.95259     12.01396         0.013039      0.000303     -0.001323
Au     16.76256     15.29399     12.90240        -0.007266     -0.013423      0.029091
Au     18.55579     17.30849     13.55800         0.022241     -0.023155      0.042450
Au     11.74906     17.23838     12.20736        -0.011802      0.005204     -0.013537
Au     14.26624     16.08300     11.86736        -0.002534      0.034104     -0.054096
Au     13.94671     18.52463     13.34938        -0.001830      0.032405     -0.054824
Au     11.97915     17.31774     14.97872        -0.036112      0.014849     -0.014438
Au     14.63545     15.99666     14.87278        -0.086061      0.061890     -0.121594
Au     16.35053     18.43505     14.81118        -0.004844     -0.019257      0.026504
Au     17.43361     15.88503     15.65760        -0.070894     -0.011525      0.006473
Au     15.84756     17.36384     17.38467        -0.008674     -0.020667      0.012449
Au     13.16447     16.64623     17.44307         0.070435     -0.041763      0.019524
Au     11.58134     14.81863     16.15150         0.133908     -0.008936      0.044755
Au     13.94584     18.97434     16.09093        -0.010966     -0.014791     -0.020386
Au     15.17933     14.63318     17.23368         0.000619     -0.027863      0.041042
Au     13.61967     13.17835     15.33477         0.063370      0.011936      0.053395
Au     16.36450     13.41739     14.98604        -0.012707     -0.003887      0.023014
