19
# total energy = -47.11951208 eVAu     17.93769     17.31288     12.70142        -0.016184     -0.009313     -0.010067
Au     18.46676     14.66115     12.02187         0.004625     -0.005267     -0.011183
Au     16.09943     13.28190     12.34762         0.027527     -0.002245     -0.022981
Au     13.58275     16.25006     11.70469        -0.037775     -0.008716      0.011360
Au     16.16961     15.73881     10.93617         0.029546     -0.018822     -0.011074
Au     13.51256     13.79243     13.11584        -0.035375      0.016050     -0.000162
Au     15.47691     18.28215     11.82081        -0.006688      0.011420     -0.028862
Au     13.59952     14.77622     15.89804         0.002582     -0.004797     -0.021960
Au     17.84332     13.93622     14.64009        -0.009223     -0.002774     -0.015491
Au     11.99312     15.94410     13.94087        -0.003584     -0.004008     -0.010615
Au     15.56676     15.76612     13.80258        -0.020884     -0.026454     -0.048037
Au     15.32491     12.79175     14.97230        -0.012698     -0.032549     -0.004002
Au     13.69359     18.15398     13.95992         0.001442     -0.018017     -0.015657
Au     15.14410     17.21870     16.31430        -0.015387      0.041588      0.069018
Au     12.44233     17.31678     16.35640        -0.002208      0.026621      0.043256
Au     16.23928     14.70219     16.78424        -0.003025     -0.044582      0.025260
Au     16.35493     18.84627     14.40559         0.000341      0.037395     -0.027008
Au     17.72552     16.70751     15.54946         0.059903      0.028071      0.044944
Au     19.87372     15.84602     14.15217         0.037067      0.016401      0.033262
