19
# total energy = -47.34763057 eVAu     13.95359     13.95100     13.25884         0.003357     -0.009748     -0.013938
Au     11.21911     14.35741     12.91603        -0.001014      0.055595      0.005711
Au     16.52304     18.55966     11.88453         0.021475     -0.013467     -0.029682
Au     15.59122     15.90103     11.98335         0.022255      0.012881      0.041159
Au     17.09890     17.04124     14.18605         0.010146      0.025547     -0.001649
Au     11.59058     17.20006     13.35573         0.013208     -0.000446      0.007990
Au     12.91790     15.80474     11.31106         0.023242     -0.003769      0.044435
Au     16.59386     14.32321     14.08489         0.000330      0.014051      0.045691
Au     13.83997     18.26396     12.27100        -0.025810     -0.041913      0.009358
Au     11.84800     17.25013     16.24534         0.009961      0.018637     -0.010585
Au     14.30669     16.49044     14.60084        -0.112204     -0.014736      0.001857
Au     15.50657     19.29172     14.39475        -0.010233      0.028206      0.026681
Au     16.29563     15.96808     16.57957         0.042754      0.016733     -0.057930
Au     14.43198     18.30375     16.76933         0.051172     -0.028280     -0.012384
Au     13.72514     15.72062     17.60112         0.049577      0.005090      0.029760
Au      9.88220     15.78785     14.93658        -0.041625      0.022219     -0.048585
Au     12.78790     19.35910     14.68671        -0.044534     -0.066217     -0.001034
Au     14.80030     13.64576     16.03296         0.030334     -0.042073     -0.009922
Au     12.27416     14.49591     15.50173        -0.042389      0.021687     -0.026933
