19
# total energy = -47.34704544 eVAu     14.90912     14.25020     11.83670        -0.021321     -0.012459      0.005581
Au     12.21864     14.88482     11.88559         0.045561      0.003948     -0.019375
Au     16.04752     18.77430     10.76982        -0.038169     -0.063087      0.094049
Au     16.63836     16.30679     12.00420         0.056620     -0.006027     -0.034180
Au     18.53770     18.31814     12.05499        -0.059853     -0.020438      0.021813
Au     11.61392     17.52924     11.86199         0.030406      0.049136     -0.075709
Au     14.09603     16.78040     10.76387        -0.053514     -0.100053      0.020337
Au     13.76728     19.29116     12.29210        -0.068638      0.015822      0.092106
Au     11.70740     18.78993     14.26216         0.042686      0.024311     -0.007662
Au     14.09037     16.77290     13.63722        -0.014364     -0.005482      0.005154
Au     16.29990     18.89210     13.57761         0.050198      0.044693     -0.003369
Au     18.02214     16.81768     14.40948        -0.111640      0.010649     -0.042103
Au     15.73693     17.33965     15.92267        -0.101662      0.046696      0.033340
Au     12.90796     17.60016     16.47511         0.041196      0.027699     -0.010519
Au     11.62315     15.91589     14.51485         0.177577      0.061873     -0.062695
Au     14.20609     19.62057     15.10511        -0.023044     -0.004661      0.011320
Au     14.02968     15.13543     16.31503         0.089749     -0.008789      0.032674
Au     13.41914     13.69524     14.09856         0.044154      0.005407     -0.024141
Au     16.06568     14.82879     14.39449        -0.085940     -0.069240     -0.036620
