19
# total energy = -47.13430334 eVAu     15.56275     14.06397     12.01551         0.009432     -0.003660      0.008522
Au     12.96265     14.19921     12.91628        -0.002565     -0.002904      0.011249
Au     16.58105     16.83255     11.89459        -0.002787     -0.003147      0.012964
Au     18.08896     14.73582     12.91531        -0.007775     -0.007444      0.000066
Au     18.92813     17.39634     13.39625        -0.012481     -0.002304      0.003105
Au     12.34924     17.05300     13.36109         0.010345     -0.002980      0.007590
Au     13.94406     16.18966     11.23693         0.005406     -0.000907      0.016038
Au     14.52891     18.58190     12.56583         0.002488     -0.014884      0.008596
Au     11.49701     17.78374     15.97288         0.009953     -0.003012     -0.003121
Au     14.97428     15.83716     14.26273         0.001849      0.011237      0.002465
Au     16.60408     18.29970     14.42407         0.000543      0.014178      0.004695
Au     17.76213     15.81751     15.45221        -0.009339      0.002375     -0.009882
Au     15.99411     17.32356     16.97635        -0.005867     -0.005201     -0.015034
Au     13.53147     16.03844     16.91947         0.002778      0.001938     -0.012545
Au     11.60914     15.07424     15.16268         0.004444     -0.009902     -0.004113
Au     14.03115     18.43344     15.31681         0.003787      0.014010      0.003542
Au     15.87708     14.52902     17.06053        -0.006677      0.005904     -0.015751
Au     13.82486     13.45907     15.51342        -0.005522      0.003459     -0.007390
Au     16.42534     13.32360     14.61256         0.001990      0.003245     -0.010998
