19
# total energy = -47.45761217 eVAu     18.45332     18.87732     12.35062        -0.042424     -0.036135      0.041470
Au     18.73834     14.25383     13.19255        -0.031686     -0.018789      0.028728
Au     13.66156     16.90547     14.09716         0.036624      0.006401      0.032870
Au     16.24811     13.75468     12.29836         0.007754     -0.008050     -0.047698
Au     14.72834     15.98396     11.73213        -0.044613     -0.028969      0.027080
Au     17.50779     16.31952     11.74746         0.001377     -0.035811      0.039792
Au     13.98864     14.13097     13.80134         0.048038      0.022754      0.013025
Au     19.30757     16.85463     14.07637        -0.029144     -0.044718     -0.000173
Au     15.73025     18.36338     12.73044        -0.004007      0.061184     -0.023068
Au     14.43271     15.17339     16.30827         0.060762      0.019517     -0.048690
Au     18.99583     14.57194     15.85389         0.049802      0.003707      0.004334
Au     16.52650     16.13530     14.46924        -0.033156     -0.028834      0.031766
Au     16.45681     13.44435     15.14214         0.002922      0.067990     -0.019081
Au     14.72073     19.29778     15.13794        -0.017021     -0.019624      0.017411
Au     15.91871     17.57683     17.01715        -0.026170     -0.011077     -0.041417
Au     13.14834     17.57725     16.74889         0.047207      0.003057     -0.036719
Au     16.88326     14.99229     17.54651        -0.006043      0.006414     -0.053710
Au     17.45586     18.87664     14.96412         0.008233      0.066291     -0.011719
Au     18.62657     17.14341     16.77634        -0.028457     -0.025310      0.045799
