19
# total energy = -47.47502178 eVAu     18.44666     18.84906     12.36248        -0.004752     -0.029981      0.010458
Au     18.63591     14.20741     13.28217         0.025791     -0.008947     -0.017980
Au     13.65236     16.90132     14.08454        -0.014744      0.012993      0.031442
Au     16.20634     13.73434     12.20527         0.027894     -0.005960     -0.027277
Au     14.70841     15.99897     11.72163         0.023577     -0.000770      0.005689
Au     17.50102     16.28712     11.77194        -0.007327     -0.006828      0.002596
Au     14.00230     14.13590     13.78139         0.038192     -0.012379      0.000456
Au     19.28970     16.81864     14.08672        -0.003064     -0.004578      0.008004
Au     15.72305     18.39157     12.70401        -0.012401      0.015844      0.002966
Au     14.47264     15.16155     16.28054        -0.031396     -0.010325      0.027030
Au     19.07588     14.58770     15.91822         0.034396     -0.003964     -0.019030
Au     16.50315     16.20750     14.47071        -0.025326     -0.017643      0.023756
Au     16.49334     13.50250     15.10005        -0.022407     -0.000716      0.018010
Au     14.72465     19.25873     15.14392         0.005738      0.051286     -0.015822
Au     15.92870     17.57855     17.02986        -0.037175      0.006431      0.003798
Au     13.15994     17.53613     16.74927        -0.000519      0.027071     -0.005510
Au     16.90469     14.99928     17.53660         0.011656     -0.020274     -0.032290
Au     17.47272     18.91191     14.96823        -0.010443      0.016701      0.006521
Au     18.62779     17.16473     16.79340         0.002308     -0.007962     -0.022816
