19
# total energy = -45.94397314 eVAu     18.32913     18.86727     12.44802         0.864343      1.270707     -0.960037
Au     19.32021     14.52465     12.68112         1.223504     -0.849079     -0.750106
Au     13.70955     16.91655     14.16321        -0.915282      0.071028     -0.859873
Au     16.74003     13.94373     12.94539        -0.340325     -1.050200     -0.824216
Au     14.95113     15.82602     11.96787        -0.522877      0.079307     -1.206812
Au     17.57145     16.37304     11.86017        -0.183317     -0.111078     -1.358397
Au     14.14215     14.21943     13.89141        -0.976739     -0.855146     -0.277381
Au     19.20789     16.86018     13.97778         1.245502      0.314067      0.490726
Au     15.75324     18.28137     12.79407        -0.846646      0.558413     -0.721992
Au     14.31732     15.31458     16.36557        -0.699708     -0.651140      0.690502
Au     18.48525     14.46324     15.20379         0.904408     -0.679839      0.786094
Au     16.38333     16.14972     14.57688        -0.133355      0.101034      0.080006
Au     16.04268     13.30857     15.49368        -0.019520     -1.416333      0.340545
Au     14.75097     19.21968     15.13212        -0.018635      1.490356     -0.328819
Au     15.86712     17.55882     16.95516         0.537701      0.503254      1.019888
Au     13.21440     17.72856     16.66257        -1.584340      0.307051      1.153985
Au     16.82229     15.01722     17.35959         0.174363     -0.512074      1.212303
Au     17.41986     18.77751     14.95074         0.322292      0.906233      0.790332
Au     18.50124     16.88280     16.56180         0.968634      0.523438      0.723254
