19
# total energy = -47.36047351 eVAu     15.18268     15.18071     15.27156        -0.033878      0.036609      0.031880
Au     15.18936     13.06719     13.42046        -0.001623      0.005170      0.002347
Au     16.93914     17.24124     14.08639         0.021452     -0.048292     -0.009961
Au     17.67569     14.47086     13.72723        -0.007253      0.058378      0.001723
Au     19.47408     16.31595     14.82714        -0.061063     -0.025830      0.018381
Au     13.08932     15.16463     13.29397         0.005001      0.002349      0.051752
Au     15.61387     15.55758     12.20482        -0.010543      0.008923      0.014360
Au     14.32116     17.70993     13.47448         0.009530      0.013462     -0.028057
Au     12.58201     17.06571     15.47499         0.007077     -0.000563     -0.014920
Au     17.92732     17.84779     16.61444         0.005556     -0.022325      0.014345
Au     17.90618     14.97383     16.60162         0.059924      0.041044     -0.031499
Au     16.36559     16.49042     18.42091        -0.007669      0.024813     -0.034379
Au     13.73423     15.97815     17.78053         0.015470     -0.030210     -0.013750
Au     12.43881     14.31712     15.81800         0.054486     -0.004148     -0.016836
Au     13.16732     13.26641     18.32249         0.014644      0.013768     -0.027578
Au     15.15234     17.91156     16.23797         0.001828     -0.020892     -0.005406
Au     15.78603     13.83644     17.82603        -0.076369     -0.037216      0.042829
Au     14.28416     12.26734     15.92506         0.024137     -0.016064      0.030279
Au     16.99155     12.54045     15.59344        -0.020706      0.001022     -0.025509
