19
# total energy = -47.03264404 eVAu     17.93480     17.22927     12.72779        -0.005130      0.084816     -0.030169
Au     18.55450     14.59137     11.90221        -0.068378      0.040566      0.068389
Au     16.12735     13.30937     12.35715        -0.011020     -0.016622      0.011790
Au     13.57500     16.25016     11.74422         0.009810      0.015355     -0.014437
Au     16.19499     15.73156     10.96709        -0.010112      0.019576     -0.010012
Au     13.50741     13.82786     13.13422         0.007308     -0.022517      0.006066
Au     15.48766     18.26559     11.86897         0.003890     -0.020114      0.026330
Au     13.59052     14.84365     15.84191         0.013750     -0.072997      0.050259
Au     17.84475     14.00139     14.58043        -0.009614     -0.068222      0.058743
Au     11.83891     15.92130     13.89362         0.103562      0.008026      0.016988
Au     15.59255     15.80186     13.86804        -0.022164     -0.030890     -0.055687
Au     15.33660     12.84056     14.98211         0.005413      0.031712     -0.003878
Au     13.68027     18.07190     13.98948         0.018245      0.079837     -0.036521
Au     15.11036     17.27685     16.41452         0.053780     -0.033658     -0.057280
Au     12.33185     17.28146     16.28789         0.057413      0.006371      0.014998
Au     16.24620     14.77106     16.76060        -0.014208     -0.024475     -0.032406
Au     16.35812     18.78994     14.45407        -0.014249     -0.014962     -0.038717
Au     17.82413     16.73954     15.60999        -0.082947     -0.006640     -0.016016
Au     19.91081     15.78056     14.04010        -0.035349      0.024839      0.041560
