19
# total energy = -47.38138718 eVAu     18.41181     18.88309     12.38072         0.055774      0.029920     -0.050242
Au     19.05920     14.32991     12.92749        -0.137747     -0.036416      0.114091
Au     13.68137     16.95713     14.13682         0.033385     -0.147153     -0.160028
Au     16.41583     13.79951     12.40475        -0.014010     -0.054174      0.132064
Au     14.71329     15.91827     11.76640        -0.038114      0.033792      0.036432
Au     17.47765     16.32794     11.79131         0.070023      0.028990     -0.029527
Au     14.05037     14.14186     13.83739         0.043617      0.040327      0.023779
Au     19.25617     16.85756     14.09293         0.041332      0.018857     -0.067486
Au     15.71768     18.31356     12.74527        -0.055343      0.071032      0.057741
Au     14.32607     15.24624     16.37415         0.075657     -0.068327     -0.041192
Au     18.93292     14.54874     15.66182        -0.115745     -0.085687      0.001238
Au     16.46948     15.96471     14.55266         0.073766      0.348094     -0.137397
Au     16.35936     13.33746     15.24214         0.023667     -0.244392      0.037521
Au     14.72268     19.38864     15.11575         0.069169      0.065910     -0.069555
Au     15.87606     17.60986     16.97612         0.186137     -0.100748      0.044127
Au     13.14229     17.72525     16.71935        -0.159502     -0.014669      0.128280
Au     16.86398     14.97892     17.47859        -0.019313      0.021198     -0.057886
Au     17.44864     18.82850     14.98554        -0.082242      0.062648      0.019427
Au     18.60439     17.07579     16.80175        -0.050511      0.030798      0.018613
