19
# total energy = -47.02162922 eVAu     15.58608     14.09754     12.04368         0.000440     -0.012665     -0.046804
Au     12.96533     14.23443     12.95254        -0.030455     -0.011053     -0.037040
Au     16.61196     16.79317     11.96714         0.070903      0.031548     -0.072308
Au     18.20547     14.60759     12.84006        -0.094656      0.113879      0.064254
Au     19.00236     17.25565     13.33134        -0.141042     -0.017115      0.042125
Au     12.36762     17.01490     13.43906        -0.097208      0.040849     -0.013365
Au     13.96730     16.23068     11.29784        -0.004492     -0.003183     -0.010824
Au     14.56188     18.57681     12.65920        -0.017443      0.007623     -0.051393
Au     11.38630     17.65342     15.97254         0.133817     -0.031810     -0.054337
Au     14.98892     15.94011     14.28778        -0.012653     -0.086400     -0.021196
Au     16.68759     18.37887     14.42010        -0.000494     -0.028507     -0.008188
Au     17.74017     15.82291     15.36664         0.103314      0.003599      0.023690
Au     15.96721     17.36824     16.89358         0.015508     -0.020953      0.048316
Au     13.49581     16.04467     16.83854        -0.064428      0.012583      0.083650
Au     11.45891     14.95997     15.17969         0.125442      0.101267     -0.012483
Au     13.97094     18.52088     15.36229        -0.007642     -0.027227     -0.006011
Au     15.86788     14.59639     17.02452         0.002104     -0.007950      0.007770
Au     13.81201     13.50635     15.50393        -0.005891     -0.031233      0.037163
Au     16.43267     13.36936     14.59498         0.024875     -0.033252      0.026982
