19
# total energy = -47.46748685 eVAu     18.44998     18.86535     12.35617        -0.004480     -0.025651      0.008545
Au     18.67810     14.23313     13.24370         0.027422     -0.037633     -0.012179
Au     13.65735     16.89937     14.09237        -0.001513      0.033875     -0.011588
Au     16.22412     13.74678     12.26018         0.008779     -0.026799     -0.099083
Au     14.71571     15.99009     11.72398         0.008755      0.014532      0.019993
Au     17.50784     16.30443     11.75912        -0.027849     -0.020471      0.015786
Au     13.99752     14.13876     13.79418        -0.016579     -0.039808     -0.030403
Au     19.30000     16.83708     14.07804        -0.019055     -0.017634      0.029415
Au     15.73174     18.37620     12.71959        -0.041081      0.021472     -0.029256
Au     14.46394     15.16715     16.28605        -0.077646      0.010502      0.055419
Au     19.02682     14.58016     15.88650         0.099829      0.001355      0.020748
Au     16.51372     16.16883     14.47125         0.002207      0.047896     -0.011313
Au     16.47498     13.48580     15.11832         0.027000     -0.078077     -0.003324
Au     14.72213     19.26809     15.14359         0.001214      0.056236     -0.013296
Au     15.92250     17.57338     17.02407         0.010280      0.035222     -0.006421
Au     13.15842     17.55304     16.74682        -0.018498      0.008709      0.010276
Au     16.89046     14.99954     17.53757         0.035156     -0.024943      0.032945
Au     17.46395     18.89164     14.96092         0.010192      0.034221      0.041325
Au     18.62996     17.15410     16.78852        -0.024133      0.006995     -0.017590
