19
# total energy = -47.47719101 eVAu     14.64863     13.50299     12.67702        -0.013506     -0.002397     -0.010992
Au     12.28258     14.78464     13.47954         0.010501     -0.009054      0.001037
Au     16.33273     17.90013     12.10314        -0.013105      0.029659     -0.054199
Au     16.74770     15.25056     12.90927         0.042106      0.020765      0.005633
Au     18.54794     17.21153     13.71436         0.016502      0.012265     -0.018516
Au     11.72619     17.21806     12.23314        -0.014884     -0.001428     -0.000862
Au     14.23834     16.10582     11.79714         0.003187      0.008541     -0.017156
Au     13.91650     18.56639     13.29285         0.000970      0.014275     -0.015972
Au     11.95237     17.31072     15.01290         0.008298      0.004933      0.011646
Au     14.54126     16.07664     14.72053         0.018579      0.013762     -0.020133
Au     16.33066     18.44652     14.84938         0.044800     -0.005499     -0.009930
Au     17.27221     15.82611     15.71979         0.006901     -0.007530      0.013085
Au     15.86174     17.44815     17.42771        -0.036310     -0.044035      0.010677
Au     13.18146     16.88067     17.58858        -0.018986      0.011075      0.040877
Au     12.06513     14.80737     16.27870         0.047749     -0.009994      0.025230
Au     13.92733     19.02795     16.03217        -0.018639      0.009593     -0.005631
Au     14.99714     14.70360     17.07799        -0.030828     -0.002725     -0.000899
Au     13.69363     12.95021     15.20154        -0.008256     -0.045171      0.007431
Au     16.39738     13.34427     14.93634        -0.045078      0.002966      0.038673
