19
# total energy = -42.22353006 eVAu     12.44287     15.77052     12.91504         0.336474      0.000000      0.336474
Au     15.13173     13.08166     12.91504        -0.000000      0.336474      0.336474
Au     17.82059     15.77052     12.91504        -0.336474      0.000000      0.336474
Au     15.13173     15.77052     12.75620        -0.000000      0.000000      0.110067
Au     15.13173     18.45938     12.91504        -0.000000     -0.336474      0.336474
Au     12.44287     15.77052     18.29276         0.336474      0.000000     -0.336474
Au     12.44287     13.08166     15.60390         0.336474      0.336474      0.000000
Au     12.28406     15.77052     15.60390         0.110067      0.000000      0.000000
Au     15.13173     13.08166     18.29276        -0.000000      0.336474     -0.336474
Au     17.82059     15.77052     18.29276        -0.336474      0.000000     -0.336474
Au     17.82059     13.08166     15.60390        -0.336474      0.336474      0.000000
Au     17.97940     15.77052     15.60390        -0.110067      0.000000      0.000000
Au     15.13173     12.92285     15.60390        -0.000000      0.110067      0.000000
Au     15.13173     15.77052     18.45157        -0.000000      0.000000     -0.110067
Au     15.13173     15.77052     15.60390        -0.000000      0.000000      0.000000
Au     12.44287     18.45938     15.60390         0.336474     -0.336474      0.000000
Au     15.13173     18.45938     18.29276        -0.000000     -0.336474     -0.336474
Au     17.82059     18.45938     15.60390        -0.336474     -0.336474      0.000000
Au     15.13173     18.61822     15.60390        -0.000000     -0.110067      0.000000
