19
# total energy = -47.36274347 eVAu     15.18448     15.18153     15.27676        -0.025076      0.034777      0.018983
Au     15.18520     13.07167     13.42765        -0.002916     -0.000870      0.005928
Au     16.94244     17.24177     14.08562         0.011347     -0.039692     -0.006886
Au     17.67457     14.47333     13.72318        -0.016324      0.035418      0.014950
Au     19.47317     16.31199     14.82542        -0.043616     -0.013818      0.015301
Au     13.08483     15.17607     13.30102         0.014088     -0.006745      0.018084
Au     15.60790     15.56042     12.20960        -0.009821      0.004113      0.005435
Au     14.32500     17.72049     13.47047         0.005902      0.010187     -0.016783
Au     12.57955     17.06145     15.46576         0.022515      0.013150     -0.002812
Au     17.92912     17.84505     16.61833         0.016693     -0.008102     -0.005785
Au     17.90928     14.97582     16.60213         0.028462      0.006030     -0.015779
Au     16.36470     16.49058     18.41617        -0.025049      0.014001     -0.014673
Au     13.73324     15.97481     17.77110         0.014626     -0.011002      0.005103
Au     12.44364     14.30927     15.81574         0.045666     -0.013639     -0.012225
Au     13.16777     13.26484     18.32263        -0.008070      0.005404     -0.013131
Au     15.15355     17.91021     16.23320        -0.011616     -0.009298     -0.004172
Au     15.78152     13.83547     17.82660        -0.023716     -0.020273      0.036049
Au     14.28718     12.25625     15.93253         0.028827     -0.014322      0.012895
Au     16.99372     12.54230     15.59758        -0.021922      0.014681     -0.040482
