19
# total energy = -47.11820717 eVAu     17.93870     17.31266     12.70136        -0.020226     -0.012819     -0.008569
Au     18.46815     14.65943     12.01886         0.002079     -0.001428     -0.005121
Au     16.09986     13.28233     12.34775         0.027499     -0.002396     -0.021317
Au     13.58258     16.25006     11.70536        -0.036406     -0.007469      0.011287
Au     16.17000     15.73866     10.93667         0.029166     -0.017209     -0.010607
Au     13.51243     13.79302     13.11610        -0.034358      0.014989      0.000935
Au     15.47716     18.28160     11.82204        -0.005375      0.011109     -0.025563
Au     13.59867     14.77661     15.89836         0.005649     -0.002399     -0.025913
Au     17.84436     13.93624     14.63990        -0.013464      0.000690     -0.017576
Au     11.98994     15.94326     13.93927         0.001547     -0.002066     -0.006697
Au     15.56682     15.76621     13.80277        -0.017585     -0.022104     -0.040282
Au     15.32515     12.79304     14.97244        -0.011222     -0.029851     -0.002582
Au     13.69272     18.15413     13.96042         0.004301     -0.022701     -0.015820
Au     15.14306     17.22031     16.31699        -0.005037      0.034567      0.057916
Au     12.44034     17.31560     16.35425        -0.001788      0.027668      0.045175
Au     16.23962     14.70448     16.78392        -0.004828     -0.047010      0.020337
Au     16.35518     18.84478     14.40745        -0.001675      0.035162     -0.031475
Au     17.72831     16.70837     15.55102         0.043735      0.026356      0.041789
Au     19.87375     15.84446     14.14946         0.037989      0.016907      0.034083
