19
# total energy = -47.35372016 eVAu     13.95372     13.94566     13.26107         0.019019     -0.014462     -0.011981
Au     11.21808     14.36939     12.91158        -0.021035      0.017778     -0.009230
Au     16.52026     18.55696     11.87737        -0.027720     -0.014771      0.023780
Au     15.59814     15.89814     11.98694         0.036315      0.012739      0.058872
Au     17.09377     17.05478     14.19081        -0.034843      0.027085     -0.027306
Au     11.59374     17.20043     13.35756        -0.062459     -0.028568     -0.026787
Au     12.92886     15.79965     11.31707         0.014334     -0.017049     -0.000985
Au     16.59363     14.32957     14.09676         0.010391      0.036639      0.017926
Au     13.83208     18.25469     12.27475         0.095048      0.031246     -0.011678
Au     11.85133     17.25688     16.24521        -0.011071     -0.073405      0.067503
Au     14.28706     16.48374     14.60152        -0.019106     -0.015752      0.019808
Au     15.49983     19.30887     14.39659        -0.007687      0.004254     -0.044760
Au     16.31081     15.96027     16.57416        -0.029952      0.001298     -0.057031
Au     14.45230     18.29755     16.76136         0.040081     -0.041335      0.010867
Au     13.73594     15.72272     17.60493         0.040634     -0.016402     -0.041333
Au      9.87702     15.79783     14.92455        -0.063952      0.022640     -0.008164
Au     12.77629     19.34116     14.69363         0.025776      0.047629     -0.023039
Au     14.79972     13.63551     16.02940        -0.044536      0.010388      0.020306
Au     12.26414     14.50189     15.49518         0.040761      0.010048      0.043232
