19
# total energy = -47.36428760 eVAu     15.18423     15.18525     15.28192        -0.011931      0.020522      0.010267
Au     15.18150     13.07479     13.43422        -0.010517      0.000757     -0.000810
Au     16.94557     17.23909     14.08452        -0.011693     -0.012237     -0.003927
Au     17.67161     14.47713     13.72204        -0.017436      0.009023      0.004210
Au     19.46951     16.30828     14.82519         0.004549     -0.000969      0.003518
Au     13.08313     15.18401     13.30616         0.010990     -0.012297     -0.008547
Au     15.60230     15.56278     12.21339        -0.004364     -0.001974     -0.010450
Au     14.32837     17.72978     13.46645         0.005822      0.009559     -0.010164
Au     12.58043     17.06015     15.45901         0.018268      0.007363      0.008584
Au     17.93283     17.84297     16.61970         0.000150     -0.001314     -0.005568
Au     17.91252     14.97590     16.60204        -0.013797     -0.020462      0.021501
Au     16.36062     16.49132     18.41227        -0.009440      0.011565     -0.011248
Au     13.73367     15.97224     17.76505        -0.006960     -0.004459      0.017344
Au     12.45118     14.30105     15.81305         0.030793     -0.007771     -0.008867
Au     13.16597     13.26358     18.32240        -0.014668      0.000324     -0.005723
Au     15.15264     17.90900     16.22908         0.004401      0.011580      0.000892
Au     15.77884     13.83383     17.83000         0.015562     -0.006961      0.018436
Au     14.29255     12.24625     15.93871         0.017679     -0.015834      0.012869
Au     16.99336     12.54591     15.59631        -0.007407      0.013586     -0.032318
