19
# total energy = -40.05143890 eVAu     12.30363     15.77052     12.77580         0.859717     -0.000000      0.859717
Au     15.13173     12.94242     12.77580         0.000000      0.859717      0.859717
Au     17.95983     15.77052     12.77580        -0.859717     -0.000000      0.859717
Au     15.13173     15.77052     12.71155         0.000000     -0.000000      0.284412
Au     15.13173     18.59862     12.77580         0.000000     -0.859717      0.859717
Au     12.30363     15.77052     18.43200         0.859717     -0.000000     -0.859717
Au     12.30363     12.94242     15.60390         0.859717      0.859717      0.000000
Au     12.23941     15.77052     15.60390         0.284412     -0.000000      0.000000
Au     15.13173     12.94242     18.43200         0.000000      0.859717     -0.859717
Au     17.95983     15.77052     18.43200        -0.859717     -0.000000     -0.859717
Au     17.95983     12.94242     15.60390        -0.859717      0.859717      0.000000
Au     18.02405     15.77052     15.60390        -0.284412     -0.000000      0.000000
Au     15.13173     12.87820     15.60390         0.000000      0.284412      0.000000
Au     15.13173     15.77052     18.49622         0.000000     -0.000000     -0.284412
Au     15.13173     15.77052     15.60390         0.000000     -0.000000      0.000000
Au     12.30363     18.59862     15.60390         0.859717     -0.859717      0.000000
Au     15.13173     18.59862     18.43200         0.000000     -0.859717     -0.859717
Au     17.95983     18.59862     15.60390        -0.859717     -0.859717      0.000000
Au     15.13173     18.66287     15.60390         0.000000     -0.284412      0.000000
