19
# total energy = -47.29385681 eVAu     15.32295     15.17383     15.32969        -0.038800      0.023399      0.011934
Au     15.36098     13.03126     13.30960        -0.046377     -0.037163     -0.074123
Au     16.90827     17.25153     14.04578         0.112261     -0.027893      0.041776
Au     17.72117     14.51533     13.68163         0.038919      0.043156      0.045257
Au     19.45074     16.31433     14.89440        -0.060975     -0.010642     -0.024659
Au     13.19674     14.93984     13.50286         0.034167      0.068842     -0.105353
Au     15.60203     15.54484     12.15838        -0.019528     -0.021313      0.015160
Au     14.25675     17.58579     13.44716        -0.029349      0.053120      0.006472
Au     12.54563     17.15753     15.50493        -0.003807     -0.012509     -0.011150
Au     17.90476     17.85954     16.60370        -0.060805     -0.036642     -0.025107
Au     17.95513     14.92247     16.68254         0.071875      0.061139     -0.064857
Au     16.37828     16.45637     18.39538        -0.008141      0.069679     -0.006927
Au     13.77662     15.96758     17.74816         0.004088     -0.039842      0.026611
Au     12.22158     14.46418     15.98226         0.039877     -0.071076      0.008097
Au     13.14412     13.20975     18.30036         0.103602      0.061189     -0.050425
Au     15.14435     17.93835     16.18337         0.014546     -0.071782      0.069857
Au     15.78219     13.77072     17.85196        -0.111334     -0.006261     -0.011037
Au     14.17575     12.52004     15.73981         0.042264      0.015886      0.115272
Au     16.97280     12.58002     15.55955        -0.082486     -0.061285      0.033201
