19
# total energy = -47.24959377 eVAu     14.54207     12.78552     13.62347         0.013109     -0.037200     -0.026615
Au     12.22185     14.10410     14.30739         0.009522      0.006107      0.053902
Au     16.61312     16.81472     12.47889        -0.017469     -0.061703      0.040172
Au     16.87793     14.26472     13.53899         0.013847      0.042951     -0.026868
Au     18.67797     16.29356     14.25443        -0.023022      0.038462     -0.016777
Au     12.05705     16.78823     13.63345        -0.005431      0.070024      0.023966
Au     14.23474     15.37886     12.63863         0.003263     -0.019275     -0.012621
Au     14.44064     18.16368     13.46348        -0.029195     -0.004361      0.000102
Au     11.16299     16.14945     16.14623         0.050169     -0.022999      0.021713
Au     14.79222     15.00058     15.44222        -0.021020     -0.004468     -0.006427
Au     16.37221     17.47875     15.34514        -0.017107     -0.001436     -0.015443
Au     17.50298     15.03639     16.42314         0.048857      0.035664      0.017883
Au     15.49316     16.51565     17.78371         0.009376      0.015000      0.019776
Au     13.11236     15.11443     17.82110        -0.050140      0.006399     -0.032706
Au     11.08208     13.45445     16.81171        -0.004707      0.053647     -0.052553
Au     13.56494     17.53434     16.03889         0.004651      0.004464     -0.031465
Au     15.53821     13.72765     18.02704         0.026106     -0.025652      0.052579
Au     13.62665     12.50917     16.29930        -0.015222     -0.028891     -0.028751
Au     16.42065     12.51431     15.67649         0.004413     -0.066733      0.020134
