19
# total energy = -42.10901398 eVAu     13.64889     12.16254     13.98017         0.235081     -0.125929     -0.053926
Au     12.15852     19.76876     13.97986        -0.225194     -0.140709     -0.053281
Au     19.49006     17.25624     13.97993        -0.007557      0.266376     -0.053434
Au     11.43189     16.70809     12.97753         0.030698     -0.264783      0.114138
Au     17.20336     19.41588     12.97765        -0.243329      0.103530      0.116584
Au     16.66234     13.06343     12.97843         0.214692      0.157463      0.112182
Au     17.66160     15.38069     14.40865        -0.570792     -0.607594     -0.461813
Au     12.93968     14.68422     14.40791        -0.241531      0.797166     -0.459675
Au     14.69719     19.12230     14.40790         0.811586     -0.191570     -0.464182
Au     16.54983     20.62890     15.71143        -0.235081      0.125929      0.053926
Au     18.04020     13.02268     15.71174         0.225194      0.140709      0.053281
Au     10.70866     15.53520     15.71167         0.007557     -0.266376      0.053434
Au     15.09936     16.39572     14.84580         0.000000     -0.000000     -0.000000
Au     18.76683     16.08335     16.71407        -0.030698      0.264783     -0.114138
Au     12.99536     13.37553     16.71395         0.243329     -0.103530     -0.116584
Au     13.53638     19.72798     16.71317        -0.214692     -0.157463     -0.112182
Au     12.53715     17.41075     15.28295         0.570792      0.607594      0.461813
Au     17.25904     18.10722     15.28369         0.241531     -0.797166      0.459675
Au     15.50153     13.66911     15.28370        -0.811586      0.191570      0.464182
