19
# total energy = -43.53038310 eVAu     13.90829     12.30297     13.80142        -0.049649      0.111949      0.216086
Au     12.15158     19.47521     13.80155         0.118219     -0.024613      0.214549
Au     19.23911     17.40974     13.80117        -0.072118     -0.098897      0.216518
Au     11.37633     16.88868     13.28938        -0.042072     -0.168999      0.162018
Au     17.38966     19.37216     13.29005        -0.134489      0.128871      0.158505
Au     16.53245     12.92429     13.29065         0.177818      0.051301      0.161096
Au     17.48620     15.36013     14.01843         0.090814     -0.187532      0.047540
Au     13.01001     14.84600     14.01724        -0.208534      0.015979      0.044788
Au     14.80285     18.97927     14.01661         0.117212      0.175231      0.046950
Au     16.29043     20.48847     15.89018         0.049649     -0.111949     -0.216086
Au     18.04714     13.31623     15.89005        -0.118219      0.024613     -0.214549
Au     10.95961     15.38170     15.89043         0.072118      0.098897     -0.216518
Au     15.09936     16.39572     14.84580         0.000000     -0.000000     -0.000000
Au     18.82239     15.90276     16.40222         0.042072      0.168999     -0.162018
Au     12.80906     13.41925     16.40155         0.134489     -0.128871     -0.158505
Au     13.66627     19.86712     16.40095        -0.177818     -0.051301     -0.161096
Au     12.71255     17.43131     15.67317        -0.090814      0.187532     -0.047540
Au     17.18871     17.94544     15.67436         0.208534     -0.015979     -0.044788
Au     15.39587     13.81214     15.67499        -0.117212     -0.175231     -0.046950
