19
# total energy = -47.45709205 eVAu     18.45062     18.87729     12.35267        -0.035274     -0.028147      0.034055
Au     18.75299     14.25748     13.18042        -0.036367     -0.022641      0.033006
Au     13.66584     16.90836     14.10115         0.037551     -0.001725      0.013985
Au     16.25560     13.75578     12.30342         0.004722     -0.007150     -0.031095
Au     14.72820     15.98005     11.73698        -0.039400     -0.017766      0.028255
Au     17.50747     16.32042     11.74782        -0.008217     -0.029311      0.040679
Au     13.98969     14.13001     13.80385         0.057553      0.025710      0.013466
Au     19.30691     16.85550     14.07633        -0.033859     -0.036913      0.006890
Au     15.72885     18.36522     12.73102        -0.005238      0.039312     -0.014925
Au     14.42761     15.17726     16.31138         0.069781      0.002634     -0.052269
Au     18.99297     14.56998     15.84549         0.032870      0.000569      0.003574
Au     16.52744     16.12449     14.47102        -0.026065     -0.009676      0.021810
Au     16.45251     13.43689     15.14714         0.002739      0.066358     -0.018176
Au     14.71883     19.30509     15.13774        -0.006742     -0.011422      0.007699
Au     15.91558     17.57749     17.01154        -0.007058     -0.013367     -0.036210
Au     13.14943     17.58424     16.74640         0.022274      0.009305     -0.018589
Au     16.88136     14.99045     17.54529        -0.003845      0.006843     -0.063578
Au     17.45452     18.87851     14.96473         0.004977      0.043790     -0.005916
Au     18.62282     17.13844     16.77656        -0.030400     -0.016404      0.037338
