19
# total energy = -47.37243917 eVAu     18.41869     18.91421     12.36833        -0.043910     -0.022096      0.038827
Au     19.23642     14.39222     12.77630        -0.084235     -0.019027      0.069248
Au     13.61145     16.92788     14.08547         0.062628      0.051076      0.058386
Au     16.54089     13.85094     12.62411        -0.008103     -0.039985     -0.054587
Au     14.76255     15.87837     11.75456         0.047653     -0.010766      0.055041
Au     17.51669     16.34913     11.77833        -0.004849      0.008147     -0.027780
Au     14.08867     14.16819     13.87608        -0.031164     -0.056133     -0.054890
Au     19.27491     16.87218     14.05296         0.022198      0.017289      0.008730
Au     15.71004     18.28961     12.75347         0.012342      0.050539     -0.029441
Au     14.27643     15.28532     16.40374         0.033621     -0.005687     -0.024982
Au     18.75111     14.50887     15.48420         0.056818     -0.020838      0.029867
Au     16.39680     16.03781     14.59180         0.008852      0.012828     -0.008872
Au     16.25480     13.21613     15.35085        -0.027557      0.050107      0.009829
Au     14.73793     19.33459     15.11597        -0.014947      0.030388      0.004831
Au     15.91051     17.61202     17.06055        -0.047657      0.018196     -0.085814
Au     13.12647     17.77353     16.72058        -0.020730     -0.050639      0.027342
Au     16.83274     14.98494     17.42704         0.055206     -0.031042      0.056787
Au     17.44440     18.80545     14.99765         0.019853      0.053283     -0.019461
Au     18.63775     17.03156     16.76894        -0.036019     -0.035639     -0.053061
