19
# total energy = -47.26171161 eVAu     12.99432     12.99457     13.60363        -0.011534     -0.011577      0.000793
Au     10.79015     14.69054     13.89527         0.023292      0.005295     -0.023231
Au     14.03477     17.48598     12.82385        -0.033148     -0.003415     -0.000642
Au     15.17265     14.85950     13.39070        -0.024954     -0.021375      0.002692
Au     16.58429     17.19206     13.85502        -0.027725     -0.009746      0.010398
Au     11.17748     17.18816     12.69865        -0.014480     -0.000873     -0.002199
Au     12.81863     15.14040     11.90762         0.008911      0.001712     -0.010858
Au     12.30094     19.09549     14.31471         0.008519      0.010702     -0.005375
Au     10.46598     17.16772     15.40279         0.021914      0.022552     -0.012402
Au     13.10686     15.96074     15.13014        -0.000429     -0.000421     -0.000389
Au     14.71403     18.36262     15.52270        -0.028925      0.001733      0.016449
Au     15.85188     15.73631     16.08962        -0.020987     -0.014762      0.020181
Au     14.35251     17.12012     18.00177         0.013432      0.005900      0.003000
Au     11.75091     15.93041     17.71201         0.030128      0.014069      0.002302
Au      9.62971     14.72958     16.40531         0.028229      0.010311     -0.010283
Au     12.26204     18.58808     17.00788        -0.011894      0.002800      0.008741
Au     14.07902     14.39452     17.91277        -0.007664     -0.006876      0.010783
Au     12.07516     13.45331     16.20446         0.032554     -0.003425     -0.007114
Au     14.87022     13.16500     15.59459         0.014764     -0.002604     -0.002846
