19
# total energy = -47.23860833 eVAu     14.92742     14.28630     11.84631        -0.438722     -0.586553     -0.079845
Au     12.22174     14.89713     11.89604         0.056431     -0.138725     -0.077800
Au     16.04329     18.77370     10.76999         0.109561     -0.079789      0.152765
Au     16.59617     16.27897     12.01210         0.780294      0.671999     -0.061377
Au     18.54651     18.32116     12.05185        -0.375912     -0.129723      0.133971
Au     11.62418     17.52040     11.87881        -0.052696      0.113927     -0.200726
Au     14.10708     16.78541     10.78189        -0.206310     -0.066917     -0.190740
Au     13.78114     19.27535     12.29720        -0.237044      0.155736     -0.050633
Au     11.71392     18.77588     14.25657         0.020800      0.140779      0.092461
Au     14.09797     16.77556     13.63454        -0.160944     -0.056084      0.056876
Au     16.25452     18.88940     13.60087         0.878595     -0.093713     -0.528694
Au     18.01917     16.81582     14.41198        -0.065539      0.094033     -0.170407
Au     15.73621     17.33819     15.90094        -0.055118     -0.022937      0.284309
Au     12.91068     17.58982     16.46257         0.002064      0.160218      0.057313
Au     11.62331     15.91594     14.51477         0.130625      0.045551     -0.046114
Au     14.23176     19.59978     15.07997        -0.545787      0.243447      0.427883
Au     14.02129     15.14497     16.29748         0.147444     -0.082168      0.168167
Au     13.41852     13.71132     14.10209         0.036438     -0.120712     -0.113516
Au     16.06214     14.84829     14.38558        -0.024179     -0.248368      0.146108
