19
# total energy = -47.43917688 eVAu     18.43016     18.87631     12.36846         0.018433      0.026382     -0.021428
Au     18.85012     14.28016     13.10025        -0.049891     -0.040060      0.048458
Au     13.70336     16.92281     14.11788        -0.049467      0.041166      0.074428
Au     16.30804     13.76386     12.34179        -0.011148     -0.021082      0.014647
Au     14.72435     15.95562     11.77867         0.018493      0.022068     -0.091801
Au     17.50102     16.32527     11.75547        -0.047645      0.005757      0.028687
Au     14.00766     14.12931     13.82462         0.039792     -0.032064     -0.023238
Au     19.29674     16.85975     14.07927        -0.041033      0.006051      0.037895
Au     15.71682     18.37447     12.73626         0.013371     -0.038209      0.011011
Au     14.40610     15.19456     16.32452        -0.008402      0.027255     -0.002152
Au     18.97003     14.55582     15.78614        -0.013806     -0.022251      0.012620
Au     16.53292     16.05131     14.48369         0.027275      0.151921     -0.054951
Au     16.42112     13.39391     15.18100         0.017119     -0.051260     -0.000767
Au     14.70874     19.35927     15.13318         0.030818     -0.030055     -0.017434
Au     15.90634     17.57835     16.96925        -0.084694      0.027507      0.017171
Au     13.14620     17.63920     16.73623         0.017085     -0.042534     -0.004588
Au     16.86665     14.97967     17.52443         0.042189     -0.030674     -0.023467
Au     17.44430     18.88861     14.97136         0.001426     -0.044568     -0.000136
Au     18.58857     17.10469     16.77847         0.080084      0.044650     -0.004955
