19
# total energy = -47.07902353 eVAu     17.94977     17.29994     12.70235        -0.026545     -0.057758      0.025439
Au     18.49420     14.62811     11.96395         0.020116      0.041381      0.075490
Au     16.11442     13.29126     12.35077        -0.031486     -0.012711      0.022962
Au     13.57532     16.25191     11.72193         0.033620      0.014860     -0.021639
Au     16.18349     15.73585     10.94704        -0.028481      0.027464     -0.000703
Au     13.50601     13.80675     13.12472         0.033194     -0.027103      0.004018
Au     15.48388     18.27106     11.85206        -0.009663     -0.004870     -0.028901
Au     13.58706     14.78817     15.89452         0.016928      0.045383     -0.048571
Au     17.85647     13.94327     14.62941        -0.026568      0.052751     -0.037616
Au     11.93135     15.92817     13.91011         0.033068      0.039930      0.070109
Au     15.57104     15.77213     13.81430         0.012652      0.016414      0.028970
Au     15.33197     12.82322     14.97839        -0.007507     -0.021563     -0.019193
Au     13.68023     18.14582     13.96846         0.014251     -0.065679      0.013035
Au     15.13427     17.24909     16.36616        -0.033696     -0.028062     -0.047731
Au     12.39580     17.29441     16.31491         0.053485      0.010300      0.020114
Au     16.24323     14.74407     16.77010        -0.009342     -0.067091      0.009286
Au     16.35706     18.81176     14.43521        -0.007736      0.046068     -0.054594
Au     17.77074     16.72728     15.58484        -0.007325     -0.034532     -0.053765
Au     19.88048     15.81298     14.09516        -0.028966      0.024817      0.043291
