19
# total energy = -47.43542737 eVAu     18.42434     18.88186     12.37136         0.024209      0.011080     -0.021021
Au     18.88357     14.28052     13.07446        -0.026338     -0.005916      0.021569
Au     13.71295     16.93363     14.13457        -0.056508     -0.026667     -0.015123
Au     16.33042     13.76295     12.36489        -0.024338     -0.013009     -0.022888
Au     14.72344     15.95006     11.78159        -0.019877      0.003728     -0.050168
Au     17.48670     16.32805     11.76749         0.032079     -0.001863     -0.024537
Au     14.03033     14.12586     13.83058        -0.029298     -0.000147     -0.025203
Au     19.28094     16.86196     14.08948         0.032330     -0.002105     -0.024263
Au     15.71296     18.36863     12.74097         0.009767      0.001879     -0.017738
Au     14.40072     15.20427     16.32628        -0.023228      0.015303      0.014752
Au     18.95456     14.54367     15.76057         0.017723     -0.000430      0.031107
Au     16.53913     16.05002     14.47936        -0.029637      0.025621      0.016776
Au     16.40938     13.36823     15.19599         0.018048      0.017070     -0.017858
Au     14.71218     19.38139     15.12540         0.000327     -0.012290      0.002465
Au     15.89147     17.58168     16.95356         0.003954     -0.009221      0.063638
Au     13.14146     17.65875     16.73532        -0.004113     -0.043042      0.013369
Au     16.86839     14.96984     17.50301         0.015189      0.013920      0.032786
Au     17.44011     18.88239     14.97578         0.018810      0.004703     -0.005624
Au     18.58619     17.09919     16.78028         0.040900      0.021382      0.027961
