19
# total energy = -46.43007817 eVAu     14.50202     12.74049     13.60854        -0.601804     -0.435300     -0.971457
Au     12.32155     14.13471     14.37485        -0.587565     -0.380413     -0.315919
Au     16.65995     16.85558     12.52762         0.323010      0.679762     -0.695814
Au     16.69056     14.43885     13.54151         1.401337     -1.128183      0.012937
Au     18.68410     16.26687     14.26652         0.265984      0.088990      0.053452
Au     12.15175     16.76660     13.70122        -0.550043      0.172072     -0.502629
Au     14.32602     15.33578     12.69694        -1.002196      0.273215     -0.958507
Au     14.45918     18.06119     13.46887        -0.017943      0.671259     -0.130919
Au     11.14638     16.05632     16.08743        -0.315458      0.312461      0.349082
Au     14.78786     15.02410     15.42237        -0.028044      0.097440      0.339397
Au     16.35483     17.41368     15.33350         0.379149      0.400300      0.099648
Au     17.52328     15.02412     16.42609         0.215123     -0.107676      0.015780
Au     15.54818     16.54220     17.77473         0.105890      0.624739      0.348792
Au     13.16417     15.09981     17.72810        -0.800155      0.342198      0.441915
Au     11.13060     13.44039     16.81505        -0.418976     -0.289477      0.121555
Au     13.58086     17.39428     16.04351        -0.259033      0.831466      0.216590
Au     15.50347     13.88989     18.00616         0.700550     -1.041067      0.571132
Au     13.63900     12.52613     16.33237        -0.770262     -0.467361      0.282261
Au     16.16006     12.61756     15.59831         1.960437     -0.644423      0.722705
