19
# total energy = -47.29326299 eVAu     13.97478     13.92327     13.30833        -0.000129      0.011087     -0.022602
Au     11.24286     14.38011     12.93175         0.023265      0.006258      0.016583
Au     16.53586     18.60341     11.89820        -0.033760     -0.002953     -0.019214
Au     15.57243     15.90986     12.04526         0.038441      0.018843     -0.009103
Au     17.32233     16.92504     13.97996        -0.006066      0.044777      0.028574
Au     11.52223     17.27995     13.26296         0.009073     -0.022298      0.046125
Au     12.94140     15.81641     11.34240        -0.009912     -0.020868     -0.013717
Au     16.64319     14.26875     14.07987        -0.014963     -0.021557      0.008247
Au     13.86000     18.30074     12.26545        -0.017699     -0.021906      0.010382
Au     11.78554     17.20441     16.30790         0.033105      0.042209     -0.030877
Au     14.07103     16.51553     14.57033         0.024113     -0.015973     -0.012568
Au     15.58218     18.98615     14.54374        -0.023451      0.030961     -0.014522
Au     16.21555     16.23428     16.36043         0.026863     -0.043166      0.035034
Au     14.28459     18.35043     16.90922         0.052137      0.014573     -0.017368
Au     13.78730     15.71744     17.62112        -0.060414     -0.004069      0.003791
Au      9.88163     15.82631     14.87404        -0.003546     -0.003403     -0.025198
Au     12.81859     19.29032     14.70364        -0.006275     -0.003994      0.025928
Au     14.87680     13.71466     16.05876        -0.057368     -0.001858     -0.036872
Au     12.26846     14.46862     15.53707         0.026586     -0.006664      0.027376
