19
# total energy = -43.70472067 eVAu     13.92943     12.37955     13.78514         0.004539     -0.082971     -0.003922
Au     12.20581     19.41833     13.78132        -0.070565      0.025999      0.009048
Au     19.16319     17.38968     13.78423         0.073209      0.053693     -0.004299
Au     11.18708     16.87388     13.46375         0.004460     -0.054146      0.029987
Au     17.47057     19.54471     13.46495        -0.057296      0.025362      0.028419
Au     16.64082     12.76546     13.46502         0.061043      0.050969      0.036943
Au     17.46030     15.31607     13.95989        -0.057112     -0.159786      0.053934
Au     12.98151     14.89150     13.95997        -0.080987      0.107708      0.048257
Au     14.85431     18.98161     13.95966         0.138710      0.017328      0.048475
Au     16.26929     20.41189     15.90646        -0.004539      0.082971      0.003922
Au     17.99291     13.37311     15.91028         0.070565     -0.025999     -0.009048
Au     11.03553     15.40176     15.90737        -0.073209     -0.053693      0.004299
Au     15.09936     16.39572     14.84580         0.000000      0.000000      0.000000
Au     19.01164     15.91756     16.22785        -0.004460      0.054146     -0.029987
Au     12.72815     13.24670     16.22665         0.057296     -0.025362     -0.028419
Au     13.55790     20.02595     16.22658        -0.061043     -0.050969     -0.036943
Au     12.73845     17.47537     15.73171         0.057112      0.159786     -0.053934
Au     17.21721     17.89994     15.73163         0.080987     -0.107708     -0.048257
Au     15.34441     13.80980     15.73194        -0.138710     -0.017328     -0.048475
