19
# total energy = -45.81088200 eVAu     14.07399     13.92401     13.23665         0.008794     -0.892955     -0.472963
Au     11.39278     14.52218     13.16023        -0.514767     -1.154872     -0.836214
Au     16.59804     18.55826     12.03172         0.487301      0.908559     -1.068222
Au     15.60635     16.09719     12.28959         0.050765     -0.623018     -1.035279
Au     17.64597     16.94680     13.90087         1.306500      0.037275      0.323385
Au     11.43269     17.27276     13.34278        -0.508188      0.803242     -1.001675
Au     13.01634     15.86702     11.58324        -0.030412     -0.015480     -1.244154
Au     16.64817     14.47095     14.13381         0.808726     -1.019537     -0.159419
Au     13.90278     18.30458     12.30659        -0.543040      0.671995     -0.733605
Au     11.74933     17.27138     16.12424        -0.632081     -0.110266      1.609407
Au     13.78310     16.34194     14.50237         0.142066     -0.069902     -0.111963
Au     15.57122     18.58633     14.48610         0.346824      1.032843      0.551245
Au     16.07305     16.32939     16.07338         1.180454      0.161482      0.675782
Au     14.24364     18.27116     16.79503         0.176184      0.679919      1.008340
Au     13.83882     15.72123     17.43834        -0.860206      0.262640      1.532032
Au      9.88162     15.77539     14.94558        -1.605473     -0.079481      0.433478
Au     12.87627     19.13934     14.66911        -0.125640      1.661639     -0.450840
Au     14.74856     13.88165     15.86700         0.290730     -1.557800      0.259904
Au     12.10402     14.43414     15.71380         0.021465     -0.696282      0.720760
