19
# total energy = -47.38804095 eVAu     14.67519     13.48125     12.74078         0.037893      0.028623     -0.013465
Au     12.32069     14.80889     13.46193        -0.085898      0.018527     -0.018525
Au     16.31197     17.95825     12.00636        -0.068515      0.021017     -0.061532
Au     16.75831     15.31824     12.90768        -0.085301     -0.162476      0.033588
Au     18.54432     17.30251     13.56506         0.186796      0.007934      0.026508
Au     11.75498     17.23384     12.21646        -0.067897      0.008243     -0.033425
Au     14.26107     16.08345     11.86722         0.057049      0.052633     -0.061625
Au     13.94183     18.52328     13.34799         0.056058      0.043353     -0.068775
Au     11.99259     17.32012     14.98629        -0.082467     -0.010970     -0.022054
Au     14.62294     15.97955     14.89863        -0.132551      0.179794     -0.326716
Au     16.35100     18.41870     14.79044        -0.106107      0.028030      0.159683
Au     17.42555     15.88095     15.66255        -0.090180     -0.038096      0.050413
Au     15.84853     17.37550     17.39624        -0.020289     -0.042629     -0.050409
Au     13.14379     16.70208     17.47379         0.099696     -0.119545      0.011285
Au     11.62729     14.81657     16.16452         0.206147      0.004799      0.043642
Au     13.95448     18.98356     16.08626         0.038771      0.011146     -0.031192
Au     15.14327     14.64929     17.20060         0.014269     -0.142276      0.228322
Au     13.61361     13.12354     15.29781         0.084138      0.055879      0.120944
Au     16.36948     13.40276     14.98147        -0.041612      0.056015      0.013333
