19
# total energy = -47.27936951 eVAu     18.39369     18.96126     12.37653        -0.028608     -0.067472      0.037736
Au     19.41082     14.46056     12.62583        -0.109745      0.022192      0.079415
Au     13.62615     16.93012     14.10522        -0.046476      0.056764      0.044286
Au     16.71134     13.85783     12.87293        -0.056505      0.011924     -0.090615
Au     14.89843     15.82412     11.85886        -0.074460     -0.035465     -0.079169
Au     17.57044     16.36649     11.75116         0.056038      0.004825      0.002584
Au     14.06424     14.14540     13.86799         0.049751     -0.017505     -0.003457
Au     19.31113     16.88464     14.00366         0.012323     -0.008389     -0.054357
Au     15.69383     18.33482     12.72879         0.045698      0.009394     -0.043709
Au     14.25779     15.26969     16.42188         0.014418      0.050233     -0.022867
Au     18.56371     14.40921     15.26995         0.066836      0.048420      0.068575
Au     16.37093     16.15234     14.58590        -0.043091     -0.053251      0.045910
Au     16.04503     13.18946     15.51925         0.066615     -0.036097     -0.043107
Au     14.73834     19.33554     15.11520        -0.077407     -0.063038      0.074357
Au     15.89550     17.60567     17.04179        -0.066489      0.050654      0.017978
Au     13.09687     17.75323     16.74774         0.057012      0.036866     -0.052418
Au     16.83867     14.97126     17.45818         0.020948     -0.026162     -0.041116
Au     17.45311     18.85853     15.00532         0.051718      0.011443     -0.036250
Au     18.58920     16.92278     16.63476         0.061424      0.004664      0.096221
