19
# total energy = -46.90210745 eVAu     14.46793     12.68840     13.53731        -0.103733     -0.015627     -0.211183
Au     12.30543     14.09936     14.33184        -0.420746     -0.149248      0.025607
Au     16.68453     16.89195     12.47890         0.122700      0.199928     -0.113944
Au     16.70272     14.42075     13.50708         0.790135     -0.615160      0.150205
Au     18.73047     16.27367     14.26902        -0.260422      0.030188      0.034461
Au     12.13366     16.77103     13.67326        -0.249861      0.040824     -0.168615
Au     14.28738     15.32247     12.63477        -0.467208      0.272936     -0.381259
Au     14.46619     18.09517     13.45414         0.021578      0.205106      0.057797
Au     11.13303     16.06588     16.10074         0.033304      0.055387      0.171184
Au     14.78487     15.03226     15.43670         0.056407     -0.112070      0.189407
Au     16.37339     17.45885     15.36630         0.277038      0.066159     -0.139291
Au     17.56321     15.02349     16.45992        -0.141645     -0.013858     -0.166210
Au     15.56884     16.58716     17.81721        -0.039038      0.096765      0.078384
Au     13.14373     15.11744     17.77623        -0.393115      0.176292      0.104937
Au     11.10201     13.40299     16.83286        -0.154188      0.047302     -0.048027
Au     13.58408     17.42989     16.06984        -0.212814      0.479826     -0.018100
Au     15.52271     13.87721     18.05986         0.352772     -0.576564      0.050894
Au     13.60168     12.46978     16.34793        -0.223885     -0.003644      0.005449
Au     16.17795     12.60077     15.59977         1.012722     -0.184541      0.378304
