19
# total energy = -47.13807392 eVAu     15.51226     15.28796     15.34962         0.017045     -0.044236     -0.046742
Au     15.40366     13.02107     13.29871         0.024518     -0.017339      0.051788
Au     17.01582     17.33339     13.97022        -0.095367     -0.026106      0.014173
Au     17.81379     14.50085     13.72578        -0.048964     -0.029141     -0.020578
Au     19.53947     16.40374     14.76399        -0.082820     -0.051448      0.084436
Au     13.24206     14.85869     13.70177         0.024093      0.046444     -0.042010
Au     15.63967     15.53513     12.24946        -0.052850      0.027079      0.022663
Au     14.30243     17.57429     13.51523         0.032565     -0.022915     -0.047181
Au     12.54211     17.01169     15.49554        -0.001956      0.046177     -0.009029
Au     17.92261     17.83279     16.54360        -0.030767     -0.018176     -0.019150
Au     18.06856     14.92545     16.64070        -0.048194     -0.017264      0.041462
Au     16.34400     16.42399     18.27565        -0.005070     -0.011255      0.049228
Au     13.74280     15.81953     17.66815         0.016928      0.081385      0.064704
Au     11.80814     14.40953     16.07473         0.121537      0.035493     -0.032066
Au     13.07626     13.17686     18.25550         0.086682      0.042147     -0.017297
Au     15.12651     17.96290     16.20189        -0.041226     -0.055412      0.035638
Au     15.76625     13.73343     17.88229         0.064537      0.070199     -0.034932
Au     14.05743     12.78761     15.69584         0.075523     -0.060757     -0.067074
Au     16.89700     12.60441     15.61283        -0.056214      0.005123     -0.028032
