19
# total energy = -47.09304726 eVAu     15.56347     14.07566     12.02292         0.053101      0.009070     -0.009933
Au     12.96837     14.21173     12.92305        -0.046597      0.010736      0.022296
Au     16.60361     16.83962     11.88275        -0.055199     -0.048486      0.058606
Au     18.11324     14.68701     12.89349        -0.045147      0.043972      0.027489
Au     18.93630     17.32976     13.37445         0.058123      0.033021     -0.007379
Au     12.32547     17.06271     13.36576         0.073235     -0.054496      0.013007
Au     13.95506     16.21023     11.26466         0.009396      0.044569      0.020907
Au     14.54468     18.59040     12.61050        -0.016316     -0.079887     -0.036930
Au     11.47097     17.71926     15.96292        -0.047357      0.040832      0.027282
Au     14.97653     15.85587     14.26736         0.009744      0.065776      0.015137
Au     16.63890     18.31577     14.41715        -0.134256     -0.012330      0.042186
Au     17.78793     15.82074     15.45114        -0.082919     -0.020048     -0.035436
Au     15.98360     17.35443     16.94136        -0.006890     -0.085939     -0.004391
Au     13.51064     16.04427     16.93428         0.043670     -0.027443     -0.076454
Au     11.57205     15.02880     15.16207         0.056190      0.035072     -0.006755
Au     14.00098     18.45420     15.33291         0.130256     -0.028011     -0.050084
Au     15.87339     14.56203     17.04455         0.003480      0.044797      0.002905
Au     13.82825     13.47216     15.51234        -0.053218      0.017527      0.014841
Au     16.42295     13.33725     14.61183         0.050703      0.011268     -0.017293
