19
# total energy = -47.44723537 eVAu     18.44024     18.87716     12.36055        -0.004236      0.003359      0.002669
Au     18.80942     14.27156     13.13372        -0.061677     -0.036162      0.055021
Au     13.68232     16.91950     14.11651         0.038427     -0.035564     -0.066408
Au     16.28447     13.76001     12.32289        -0.007216     -0.004372      0.024948
Au     14.72766     15.96501     11.75565        -0.018375      0.030183      0.027414
Au     17.50624     16.32386     11.74920        -0.044497     -0.009355      0.046758
Au     13.99371     14.12632     13.81348         0.092421      0.037292      0.015778
Au     19.30439     16.85883     14.07618        -0.053286     -0.012565      0.034320
Au     15.72343     18.37232     12.73326        -0.011762     -0.040167      0.010910
Au     14.40799     15.19215     16.32332         0.106206     -0.066621     -0.066444
Au     18.98195     14.56243     15.81313        -0.025086     -0.009650      0.003806
Au     16.53108     16.08285     14.47791        -0.003107      0.068827     -0.014148
Au     16.43593     13.40814     15.16641        -0.002200      0.059614     -0.011775
Au     14.71152     19.33326     15.13694         0.034305      0.012065     -0.029107
Au     15.90355     17.58002     16.98992         0.073477     -0.021824     -0.011906
Au     13.15360     17.61118     16.73680        -0.079125      0.028780      0.056492
Au     16.87405     14.98334     17.54060         0.003324      0.008924     -0.100130
Au     17.44934     18.88570     14.96706        -0.003977     -0.036614      0.017935
Au     18.60836     17.11932     16.77739        -0.033615      0.023852      0.003866
