19
# total energy = -47.38806590 eVAu     18.41405     18.89371     12.37665         0.029208      0.089753     -0.043878
Au     19.17567     14.37016     12.82828        -0.105048     -0.036303      0.089334
Au     13.63941     16.93687     14.09716         0.002147      0.000233      0.064883
Au     16.49207     13.83485     12.53562        -0.014940     -0.055526      0.040789
Au     14.73901     15.89430     11.75987         0.033114      0.004173     -0.002742
Au     17.50169     16.34560     11.79043         0.007758     -0.040532     -0.074508
Au     14.07271     14.16462     13.86178         0.011394     -0.062287     -0.006886
Au     19.26004     16.86899     14.06549         0.080906     -0.019848      0.020119
Au     15.71591     18.29337     12.76108        -0.038192      0.070383     -0.097011
Au     14.29164     15.26789     16.39590         0.057821      0.010668     -0.046651
Au     18.82388     14.52891     15.55306        -0.030113     -0.059711      0.020446
Au     16.42462     16.01191     14.57627         0.023454      0.003030     -0.018101
Au     16.29699     13.25671     15.30904        -0.005548      0.059859     -0.010770
Au     14.74131     19.34927     15.11017        -0.081699      0.078998      0.044572
Au     15.90550     17.61121     17.02946        -0.060094     -0.019669     -0.015834
Au     13.13145     17.76041     16.71974        -0.008667     -0.064696      0.021435
Au     16.84242     14.98871     17.44598         0.023222     -0.057596      0.009039
Au     17.43798     18.80549     14.98950         0.065169      0.102110      0.036556
Au     18.62290     17.04996     16.78547         0.010108     -0.003041     -0.030791
