19
# total energy = -47.35217354 eVAu     13.95365     13.94842     13.25992         0.010439     -0.012118     -0.012923
Au     11.21861     14.36320     12.91388        -0.010608      0.037144     -0.001980
Au     16.52170     18.55836     11.88107        -0.002519     -0.013598     -0.003750
Au     15.59456     15.89963     11.98509         0.028862      0.013478      0.049823
Au     17.09642     17.04778     14.18835        -0.011515      0.025805     -0.014347
Au     11.59211     17.20024     13.35661        -0.022446     -0.013718     -0.008351
Au     12.92319     15.80228     11.31396         0.018374     -0.009584      0.022416
Au     16.59375     14.32628     14.09062         0.004943      0.025242      0.032644
Au     13.83616     18.25948     12.27281         0.032912     -0.006828     -0.000300
Au     11.84961     17.25339     16.24528         0.000547     -0.024772      0.025898
Au     14.29721     16.48720     14.60117        -0.066892     -0.015199      0.010482
Au     15.50332     19.30001     14.39564        -0.008816      0.015408     -0.008167
Au     16.30297     15.96431     16.57696         0.006879      0.008975     -0.058371
Au     14.44180     18.30075     16.76548         0.045474     -0.033802     -0.001132
Au     13.73036     15.72164     17.60296         0.044710     -0.005551     -0.004759
Au      9.87970     15.79267     14.93077        -0.051943      0.022749     -0.028430
Au     12.78229     19.35043     14.69005        -0.011794     -0.013457     -0.011753
Au     14.80002     13.64081     16.03124        -0.006487     -0.016148      0.005040
Au     12.26932     14.49880     15.49856        -0.000121      0.015974      0.007961
