19
# total energy = -35.82087485 eVAu     13.40274     12.32537     13.76572         0.369379      0.394246      0.356709
Au     12.42262     19.90022     13.76559         0.155770     -0.515865      0.356581
Au     19.47264     16.96161     13.76559        -0.524748      0.124523      0.356117
Au     11.48841     16.28251     12.35199        -0.028903      0.249092      0.429663
Au     16.80684     19.57952     12.35195         0.228980     -0.099207      0.430689
Au     17.00286     13.32512     12.35203        -0.200470     -0.149056      0.430280
Au     17.30319     15.45716     13.80644         0.807338     -0.316024      0.503582
Au     13.18469     14.95649     13.80636        -0.677038     -0.542061      0.504017
Au     14.81028     18.77352     13.80639        -0.129820      0.857033      0.503944
Au     16.79598     20.46607     15.92588        -0.369379     -0.394246     -0.356709
Au     17.77610     12.89122     15.92601        -0.155770      0.515865     -0.356581
Au     10.72608     15.82983     15.92601         0.524748     -0.124523     -0.356117
Au     15.09936     16.39572     14.84580        -0.000000     -0.000000     -0.000000
Au     18.71031     16.50893     17.33961         0.028903     -0.249092     -0.429663
Au     13.39188     13.21189     17.33965        -0.228980      0.099207     -0.430689
Au     13.19586     19.46629     17.33957         0.200470      0.149056     -0.430280
Au     12.89556     17.33428     15.88516        -0.807338      0.316024     -0.503582
Au     17.01403     17.83495     15.88524         0.677038      0.542061     -0.504017
Au     15.38844     14.01789     15.88521         0.129820     -0.857033     -0.503944
