19
# total energy = -47.37149987 eVAu     14.61582     13.46867     12.79553         0.000261      0.057622      0.076923
Au     12.26713     14.82861     13.44885         0.008230      0.021986     -0.030299
Au     16.30999     17.92646     12.05808        -0.048392      0.000311     -0.006878
Au     16.80057     15.23631     12.87202        -0.059314      0.099608      0.012598
Au     18.56089     17.33107     13.52347         0.055908     -0.017004      0.037393
Au     11.74072     17.25584     12.17650         0.111754     -0.032726      0.081560
Au     14.27108     16.06478     11.87755        -0.025017      0.060879     -0.006117
Au     13.94959     18.52524     13.37182        -0.013428     -0.027837     -0.053117
Au     11.94281     17.31201     14.95935         0.007843      0.022581     -0.038654
Au     14.71888     16.03400     14.82873        -0.014885      0.021660     -0.039872
Au     16.37472     18.49474     14.85472        -0.042991     -0.064064     -0.093051
Au     17.48659     15.91030     15.62563        -0.024700     -0.012412      0.017367
Au     15.84557     17.32404     17.35159        -0.014063      0.071218      0.073282
Au     13.22028     16.44585     17.31431        -0.067343      0.054140      0.055038
Au     11.35991     14.82872     16.08653         0.095249      0.003743      0.017078
Au     13.89971     18.93152     16.11721         0.024373     -0.094940     -0.019785
Au     15.32559     14.59254     17.32964         0.043859      0.016020     -0.018373
Au     13.61990     13.38856     15.45624        -0.042090     -0.082623     -0.034371
Au     16.35117     13.46308     15.00433         0.004745     -0.098163     -0.030721
