19
# total energy = -47.31342893 eVAu     15.16547     15.15800     15.33077         0.023168      0.091740     -0.070184
Au     15.27580     13.08896     13.39703        -0.014723     -0.073866     -0.067511
Au     16.90856     17.21813     14.09092        -0.008025      0.020725     -0.032988
Au     17.68957     14.54728     13.68765        -0.017296     -0.125852      0.080726
Au     19.46636     16.32507     14.89378        -0.010875      0.005175     -0.045684
Au     13.13337     15.01728     13.32914        -0.001063      0.056495      0.035367
Au     15.61317     15.55023     12.10930         0.007911     -0.016191      0.100145
Au     14.26703     17.58343     13.44061         0.090377      0.103781      0.027471
Au     12.59770     17.14892     15.52719        -0.045777     -0.040472     -0.016166
Au     17.93358     17.88780     16.62017         0.002267     -0.047559     -0.014521
Au     17.91201     14.94722     16.62120         0.036569      0.031771     -0.017831
Au     16.40798     16.45582     18.39279        -0.037471      0.064590      0.061341
Au     13.76768     15.99114     17.80161        -0.033787     -0.043333      0.040245
Au     12.37592     14.41411     15.88464         0.018750     -0.029263     -0.082065
Au     13.12516     13.23662     18.29285         0.015631      0.036106      0.062907
Au     15.18783     17.91431     16.22258        -0.083916      0.000353     -0.004469
Au     15.75340     13.79768     17.83679         0.067966      0.020445      0.041445
Au     14.24337     12.35293     15.86871         0.061376     -0.025285     -0.029268
Au     16.99688     12.56838     15.57378        -0.071082     -0.029361     -0.068960
