19
# total energy = -47.32036546 eVAu     14.57294     13.52418     12.91075         0.011101     -0.073823     -0.115484
Au     12.21741     14.83900     13.44328         0.026968     -0.006002     -0.075458
Au     16.34002     17.91467     12.08684        -0.284405      0.068589     -0.175503
Au     16.79109     15.26858     12.87038         0.037759     -0.116418      0.015776
Au     18.58982     17.33857     13.51751         0.139041     -0.063574      0.131795
Au     11.77624     17.26841     12.16639        -0.021352      0.005445     -0.020801
Au     14.26299     16.05693     11.83951         0.033879      0.139755      0.019307
Au     13.93475     18.55913     13.36179         0.068660     -0.068586     -0.107212
Au     11.89512     17.30495     14.94187         0.015603      0.067902     -0.018695
Au     14.76809     16.08032     14.76205        -0.127353      0.002144     -0.027487
Au     16.37172     18.48094     14.82427         0.009961      0.043777      0.114533
Au     17.47565     15.90409     15.63457         0.189242      0.057411     -0.057165
Au     15.82922     17.31858     17.37025         0.090646      0.119223      0.060436
Au     13.25329     16.27543     17.23170        -0.067606     -0.011883      0.081726
Au     11.23568     14.84894     16.02597        -0.041273     -0.068091      0.110694
Au     13.88317     18.79605     16.11872        -0.017007      0.137719      0.008118
Au     15.51657     14.59578     17.36306        -0.126366     -0.064847      0.079446
Au     13.61077     13.54228     15.56856        -0.052902     -0.082053      0.043616
Au     16.33637     13.44550     15.01463         0.115406     -0.086689     -0.067642
