19
# total energy = -47.04980167 eVAu     15.58092     14.09607     12.02519         0.009571     -0.049507      0.038331
Au     12.95783     14.23338     12.93440         0.012194     -0.048228      0.038227
Au     16.61670     16.80982     11.92918        -0.027119      0.032444     -0.036530
Au     18.16571     14.64597     12.86416        -0.030718     -0.035776      0.000715
Au     18.96339     17.25979     13.34558         0.048657      0.117686      0.017786
Au     12.34149     17.03351     13.41194         0.004098      0.028563     -0.048868
Au     13.97039     16.23248     11.30635        -0.039609     -0.030139     -0.107208
Au     14.55570     18.56630     12.64356        -0.002529      0.078294     -0.012913
Au     11.42600     17.65326     15.95916        -0.018294      0.120868      0.040985
Au     14.98350     15.90415     14.27887        -0.004463     -0.031356     -0.006974
Au     16.66722     18.36655     14.42303        -0.020734     -0.044875     -0.004838
Au     17.76809     15.81974     15.39745         0.003380      0.005685      0.055207
Au     15.96932     17.35045     16.90234         0.019288      0.067136      0.043815
Au     13.49314     16.04344     16.88036         0.031600      0.003325      0.044519
Au     11.50899     14.99314     15.17283         0.019323     -0.035504     -0.017350
Au     13.98741     18.50720     15.35259         0.010278     -0.046974     -0.014704
Au     15.86612     14.60288     17.01808         0.022783     -0.086589      0.080079
Au     13.81556     13.49552     15.51994        -0.015248     -0.023396     -0.054181
Au     16.43894     13.35828     14.61044        -0.022458     -0.021659     -0.056097
