19
# total energy = -34.67295356 eVAu     13.34886     12.43599     13.71858         0.383208     -1.319277      0.321659
Au     12.54540     19.89155     13.71855        -1.334417      0.328051      0.320975
Au     19.40383     16.85959     13.71855         0.950896      0.991999      0.320539
Au     11.52232     16.22313     12.31677        -0.094401      0.306266      0.354478
Au     16.73841     19.57980     12.31677         0.313266     -0.070545      0.353588
Au     17.03736     13.38422     12.31681        -0.217933     -0.235814      0.354135
Au     17.31956     15.53809     13.71769        -0.687577     -0.957865      0.541898
Au     13.24658     14.90179     13.71769        -0.486179      1.074757      0.541518
Au     14.73202     18.74721     13.71768         1.172985     -0.116288      0.541644
Au     16.84986     20.35545     15.97302        -0.383208      1.319277     -0.321659
Au     17.65332     12.89989     15.97305         1.334417     -0.328051     -0.320975
Au     10.79489     15.93185     15.97305        -0.950896     -0.991999     -0.320539
Au     15.09936     16.39572     14.84580        -0.000000     -0.000000      0.000000
Au     18.67640     16.56831     17.37483         0.094401     -0.306266     -0.354478
Au     13.46031     13.21161     17.37483        -0.313266      0.070545     -0.353588
Au     13.16136     19.40719     17.37479         0.217933      0.235814     -0.354135
Au     12.87919     17.25335     15.97391         0.687577      0.957865     -0.541898
Au     16.95214     17.88965     15.97391         0.486179     -1.074757     -0.541518
Au     15.46670     14.04420     15.97392        -1.172985      0.116288     -0.541644
