19
# total energy = -47.12799226 eVAu     17.93185     17.31227     12.70018        -0.000940     -0.007103      0.010911
Au     18.46263     14.66628     12.03062         0.045380     -0.001321     -0.003133
Au     16.10195     13.28007     12.34384        -0.024658     -0.014907      0.003340
Au     13.57784     16.24879     11.70403         0.016937      0.003375     -0.027413
Au     16.17255     15.73658     10.93287        -0.023314      0.010507     -0.011415
Au     13.50784     13.79275     13.11491         0.016543     -0.024830     -0.008287
Au     15.47509     18.28571     11.81238        -0.016316     -0.019863     -0.037689
Au     13.60282     14.77421     15.89371         0.008035      0.012085     -0.001695
Au     17.83839     13.93573     14.63852        -0.004340      0.013257      0.002313
Au     12.00352     15.94640     13.94483        -0.041240      0.014606      0.024631
Au     15.56355     15.76198     13.79491        -0.007090     -0.010969     -0.017948
Au     15.32225     12.78258     14.97126        -0.015165     -0.019457     -0.034869
Au     13.69680     18.15083     13.95593         0.007165     -0.006820      0.008051
Au     15.14543     17.21923     16.31506         0.036407      0.013286      0.026490
Au     12.44884     17.32473     16.37010         0.009713      0.004890      0.006038
Au     16.23767     14.68782     16.78900         0.003758      0.017587     -0.005191
Au     16.35409     18.85684     14.39529         0.000545     -0.012693      0.015660
Au     17.72465     16.70864     15.55062        -0.008285      0.021090      0.037949
Au     19.87903     15.85379     14.16635        -0.003136      0.007279      0.012254
