19
# total energy = -47.25463031 eVAu     14.03525     13.89172     13.26616        -0.056937      0.022410      0.045387
Au     11.30840     14.38703     12.98623        -0.024141      0.013831     -0.015781
Au     16.49269     18.62897     11.90033        -0.006489     -0.001650     -0.012001
Au     15.62135     15.93863     12.05842        -0.021107     -0.018780      0.021751
Au     17.45132     16.91772     13.91933         0.029921     -0.004650      0.013637
Au     11.48270     17.28537     13.23303         0.006365      0.051138      0.025303
Au     12.99834     15.80728     11.35237        -0.052704     -0.001804      0.008473
Au     16.67445     14.28326     14.10130         0.013610     -0.007472     -0.037435
Au     13.82662     18.31573     12.28314         0.050946     -0.013881     -0.038739
Au     11.76180     17.23305     16.31608         0.006525     -0.023986      0.047235
Au     13.91059     16.44820     14.54216         0.143007      0.038752     -0.010308
Au     15.60250     18.83140     14.57034        -0.001886      0.051554      0.028689
Au     16.17257     16.29029     16.25450         0.008098      0.008967      0.025438
Au     14.31210     18.37472     16.97529        -0.048325     -0.025310     -0.053566
Au     13.77774     15.74796     17.61977        -0.021568     -0.012354     -0.045562
Au      9.84202     15.85551     14.85691         0.044672     -0.033718     -0.017636
Au     12.86718     19.25312     14.74598        -0.073540      0.046599     -0.036481
Au     14.84354     13.76959     16.01671        -0.045738     -0.051139      0.025879
Au     12.20558     14.45614     15.60238         0.049293     -0.038509      0.025715
