19
# total energy = -47.36328926 eVAu     14.63671     13.45821     12.76261        -0.046328      0.047870      0.101595
Au     12.28444     14.82783     13.45955        -0.008681      0.025642     -0.085572
Au     16.30816     17.92965     12.05122        -0.055329      0.003991     -0.010513
Au     16.79660     15.22989     12.87591        -0.017978      0.166531     -0.005639
Au     18.54451     17.33042     13.52103         0.070641     -0.041105      0.080817
Au     11.72564     17.25181     12.17919         0.199425     -0.054240      0.136307
Au     14.27692     16.06308     11.88961        -0.081688      0.096266     -0.027514
Au     13.95631     18.51691     13.37891        -0.063154     -0.037483     -0.096593
Au     11.96103     17.30563     14.96698        -0.013275      0.068913     -0.073815
Au     14.69529     16.01560     14.85418         0.000314      0.056840     -0.093289
Au     16.37018     18.49282     14.86186         0.003078     -0.068338     -0.158909
Au     17.48176     15.90397     15.63461         0.004909      0.024206     -0.032651
Au     15.85189     17.32570     17.34101        -0.036026      0.084912      0.152547
Au     13.21077     16.50907     17.34318        -0.093432      0.030012      0.068394
Au     11.39977     14.82472     16.10161         0.165870      0.000508      0.034881
Au     13.91355     18.96966     16.11318        -0.016099     -0.122685     -0.007411
Au     15.26502     14.60022     17.30445         0.064483     -0.013897      0.037739
Au     13.62615     13.33409     15.41380        -0.074245     -0.089685     -0.011091
Au     16.35621     13.47305     14.99923        -0.002486     -0.178257     -0.009283
