19
# total energy = -47.44349141 eVAu     18.43224     18.87744     12.36656         0.013250      0.017208     -0.014641
Au     18.84329     14.27765     13.10614        -0.052624     -0.035135      0.048648
Au     13.69861     16.92353     14.12011        -0.025119      0.006736      0.016183
Au     16.30456     13.76257     12.33981        -0.014350     -0.014884      0.010223
Au     14.72519     15.95754     11.77228         0.000877      0.022299     -0.049901
Au     17.50031     16.32529     11.75550        -0.034221      0.000495      0.025013
Au     14.00709     14.12788     13.82225         0.043943     -0.006029     -0.012524
Au     19.29652     16.85983     14.07996        -0.032581     -0.000149      0.027193
Au     15.71818     18.37291     12.73611         0.005640     -0.033355      0.006934
Au     14.40581     15.19538     16.32444         0.023270     -0.001283     -0.018804
Au     18.97113     14.55587     15.79013        -0.011444     -0.014270      0.015530
Au     16.53336     16.06050     14.48129         0.009582      0.107255     -0.031804
Au     16.42368     13.39408     15.17903         0.013022     -0.003531     -0.008767
Au     14.71011     19.35502     15.13307         0.026912     -0.016611     -0.017281
Au     15.90316     17.57937     16.97293        -0.021728      0.006939      0.017111
Au     13.14765     17.63395     16.73625        -0.013497     -0.024614      0.016056
Au     16.86913     14.97921     17.52586         0.026587     -0.011193     -0.036660
Au     17.44514     18.88676     14.97078         0.002452     -0.035439      0.004237
Au     18.59408     17.10817     16.77843         0.040030      0.035559      0.003256
