19
# total energy = -47.29607932 eVAu     15.31366     15.17222     15.32980        -0.041960      0.024498      0.008526
Au     15.35600     13.03545     13.31619        -0.044208     -0.039794     -0.079776
Au     16.90776     17.24948     14.04883         0.106807     -0.026288      0.034662
Au     17.71908     14.51795     13.68128         0.035971      0.033131      0.049935
Au     19.45104     16.31462     14.89558        -0.048574     -0.006059     -0.035012
Au     13.19257     14.94387     13.49284         0.033761      0.071399     -0.102550
Au     15.60292     15.54552     12.15484        -0.019539     -0.022339      0.018649
Au     14.25700     17.58467     13.44668        -0.022328      0.058777      0.007130
Au     12.54922     17.15697     15.50644        -0.007808     -0.010661     -0.011516
Au     17.90666     17.86122     16.60454        -0.055866     -0.031993     -0.020353
Au     17.95318     14.92473     16.67829         0.057003      0.047264     -0.053576
Au     16.38064     16.45574     18.39483        -0.013261      0.069660     -0.002498
Au     13.77592     15.96952     17.75087         0.005286     -0.040697      0.030411
Au     12.23061     14.46163     15.97643         0.042714     -0.068548      0.004856
Au     13.14276     13.21096     18.29961         0.095299      0.059178     -0.040895
Au     15.14783     17.93723     16.18545         0.004745     -0.068085      0.066772
Au     15.77970     13.77199     17.85136        -0.091932     -0.001740     -0.013769
Au     14.17902     12.51007     15.74719         0.047807      0.009405      0.109733
Au     16.97525     12.57947     15.56046        -0.083916     -0.057108      0.029268
