19
# total energy = -47.28285321 eVAu     15.41299     15.19699     15.33231        -0.013907     -0.004800     -0.009657
Au     15.39974     12.97985     13.23712        -0.029595      0.031726      0.059762
Au     16.92808     17.26573     14.02248        -0.004725      0.008919     -0.001295
Au     17.74279     14.49532     13.69163        -0.017943     -0.000607     -0.009983
Au     19.44077     16.31166     14.88122         0.016678      0.006114      0.015774
Au     13.24190     14.91655     13.58033        -0.021361      0.014066     -0.054852
Au     15.59162     15.53797     12.20088         0.009820     -0.006905     -0.015785
Au     14.25288     17.60596     13.45609        -0.007563     -0.004832      0.012547
Au     12.51411     17.15001     15.48961         0.039493     -0.013078     -0.001656
Au     17.86979     17.83552     16.58724         0.035812      0.032115     -0.018856
Au     17.98659     14.91381     16.70909         0.010983     -0.000663     -0.046183
Au     16.35692     16.47268     18.39706         0.014711     -0.032342      0.021957
Au     13.77917     15.94309     17.72491        -0.035015      0.008407      0.027201
Au     12.13866     14.47671     16.02883         0.006774     -0.048466     -0.039220
Au     13.18018     13.20880     18.30010        -0.011031      0.010173     -0.018360
Au     15.11547     17.92622     16.18268         0.003506      0.000253      0.029010
Au     15.79080     13.76815     17.85142         0.003156      0.034737      0.016768
Au     14.15296     12.62643     15.68867        -0.036630     -0.028744      0.019933
Au     16.92543     12.57186     15.55986         0.036838     -0.006075      0.012896
