19
# total energy = -47.38394605 eVAu     14.91642     14.22696     11.82034        -0.057518     -0.058814      0.000509
Au     12.22363     14.88882     11.87346         0.014277      0.016400      0.046007
Au     15.99802     18.73663     10.82043         0.023567      0.025893     -0.036663
Au     16.65739     16.27355     11.97557         0.022325     -0.046064     -0.036226
Au     18.51977     18.31228     12.06172        -0.042848     -0.015101      0.014036
Au     11.61916     17.55772     11.81583         0.007905     -0.013505      0.024399
Au     14.08261     16.73498     10.76495        -0.021159     -0.010008     -0.038401
Au     13.74617     19.30725     12.33091        -0.026268      0.034684     -0.011480
Au     11.71165     18.79987     14.25315         0.024012     -0.045651      0.010509
Au     14.13907     16.78945     13.61968         0.056596      0.020511     -0.019788
Au     16.30930     18.93620     13.59608         0.008055      0.054828      0.025368
Au     17.94227     16.81014     14.40430         0.048942     -0.000057      0.010862
Au     15.70308     17.36848     15.93778         0.002577      0.003034      0.044901
Au     12.92028     17.60231     16.48145        -0.009156     -0.014313     -0.049362
Au     11.69459     15.94074     14.48982         0.039111      0.012307     -0.013957
Au     14.20669     19.64632     15.11895        -0.065980      0.016821      0.044332
Au     14.07492     15.12431     16.34327        -0.017443      0.012123     -0.022483
Au     13.43248     13.69112     14.10101        -0.016087      0.047495     -0.010826
Au     16.03948     14.79623     14.37283         0.009091     -0.040583      0.018264
