19
# total energy = -47.39850823 eVAu     14.88691     14.18196     11.81197         0.019213      0.020733      0.000792
Au     12.21889     14.89416     11.87807        -0.013270     -0.011227     -0.008272
Au     15.97648     18.71497     10.85206        -0.003533      0.012076     -0.019822
Au     16.66372     16.21030     11.93882        -0.003438     -0.031232     -0.015336
Au     18.46823     18.29380     12.07933         0.056360      0.020276     -0.020514
Au     11.63593     17.56578     11.80669         0.002917     -0.009396      0.020844
Au     14.07837     16.71125     10.74067        -0.009545     -0.024098     -0.001294
Au     13.73487     19.33958     12.34031        -0.015195      0.008710      0.020474
Au     11.70935     18.79297     14.25070        -0.015140      0.008509      0.002515
Au     14.24207     16.82532     13.58214        -0.012109     -0.003771      0.005970
Au     16.29912     18.99697     13.63483        -0.007757      0.026700      0.017016
Au     17.89950     16.80981     14.39581         0.017118     -0.008935      0.016527
Au     15.70098     17.38988     15.96411        -0.021660      0.012069      0.011365
Au     12.91774     17.59554     16.47997        -0.006591      0.001845      0.015566
Au     11.76901     15.96621     14.46360         0.029510      0.011220     -0.009507
Au     14.16971     19.66864     15.15131         0.020121     -0.006777     -0.014396
Au     14.09308     15.12912     16.33878        -0.015536      0.009314     -0.014408
Au     13.42823     13.69480     14.10645        -0.005648     -0.017149      0.002023
Au     16.04480     14.76233     14.36592        -0.015817     -0.018867     -0.009543
