19
# total energy = -47.25239756 eVAu     12.99632     12.99771     13.60419        -0.026897     -0.043134     -0.007918
Au     10.79175     14.68993     13.88890        -0.022293      0.006911      0.080046
Au     14.02943     17.48727     12.82035         0.068555     -0.015312      0.042422
Au     15.17041     14.85364     13.38883         0.030050      0.073564      0.022717
Au     16.59926     17.19736     13.84946        -0.190554     -0.066786      0.070689
Au     11.18088     17.18772     12.69998        -0.046010      0.006501     -0.018564
Au     12.81701     15.14044     11.91095         0.021136     -0.000696     -0.045846
Au     12.29980     19.09228     14.31613         0.015151      0.043861     -0.019473
Au     10.46654     17.17384     15.40062        -0.008872     -0.076932      0.028268
Au     13.10688     15.96076     15.13016        -0.000239     -0.000258     -0.000170
Au     14.71054     18.36655     15.52673         0.045557     -0.048176     -0.051107
Au     15.85159     15.73281     16.09521         0.005849      0.044300     -0.070102
Au     14.34962     17.11859     18.00007         0.038928      0.021018      0.023359
Au     11.75504     15.93316     17.71625        -0.053885     -0.034943     -0.051552
Au      9.61468     14.72426     16.41090         0.191029      0.067732     -0.071030
Au     12.26464     18.58650     17.00552        -0.034867      0.021752      0.031790
Au     14.08009     14.39649     17.90982        -0.013130     -0.026256      0.040874
Au     12.08020     13.44918     16.20454        -0.064689      0.049904     -0.000445
Au     14.86688     13.16662     15.59488         0.045180     -0.023049     -0.003957
