19
# total energy = -47.10189754 eVAu     17.94730     17.31082     12.70083        -0.050332     -0.041004      0.007263
Au     18.48000     14.64485     11.99324        -0.015695      0.021720      0.036494
Au     16.10353     13.28604     12.34883         0.031649     -0.001891     -0.005036
Au     13.58114     16.25004     11.71108        -0.027202      0.005783      0.013740
Au     16.17337     15.73739     10.94086         0.030730     -0.004047     -0.004006
Au     13.51137     13.79801     13.11832        -0.027310      0.010163      0.013195
Au     15.47925     18.27693     11.83250         0.004469      0.008562      0.008776
Au     13.59144     14.77986     15.90115         0.028423      0.015545     -0.055617
Au     17.85322     13.93645     14.63821        -0.046135      0.029196     -0.033877
Au     11.96295     15.93612     13.92567         0.039531      0.011997      0.017730
Au     15.56726     15.76693     13.80445         0.008622      0.011992      0.021254
Au     15.32715     12.80400     14.97359         0.003897      0.002100      0.012553
Au     13.68531     18.15542     13.96467         0.025903     -0.058268     -0.015382
Au     15.13423     17.23395     16.33993         0.060929     -0.012689     -0.017353
Au     12.42346     17.30555     16.33595        -0.011738      0.025828      0.041228
Au     16.24251     14.72395     16.78124        -0.017057     -0.053832     -0.023960
Au     16.35737     18.83210     14.42321        -0.015680      0.004096     -0.059663
Au     17.75200     16.71567     15.56432        -0.062807      0.012014      0.017112
Au     19.87395     15.83117     14.12637         0.039803      0.012733      0.025550
