19
# total energy = -47.30824439 eVAu     18.39161     18.95010     12.38074         0.009370     -0.005694     -0.005923
Au     19.38357     14.46138     12.64663        -0.040598     -0.052205      0.043527
Au     13.62035     16.94005     14.10522        -0.013106     -0.025320     -0.035938
Au     16.69232     13.86268     12.84756        -0.034626     -0.012873     -0.065336
Au     14.88429     15.82123     11.84400        -0.040294      0.023827     -0.052193
Au     17.57295     16.36499     11.74944        -0.042121      0.010283     -0.010609
Au     14.07996     14.14473     13.86776        -0.009987      0.009137     -0.012024
Au     19.31382     16.88315     14.00212        -0.003830      0.021682      0.038887
Au     15.69766     18.32850     12.72140         0.004421     -0.006571      0.050187
Au     14.26635     15.27671     16.41362        -0.026042      0.039161      0.010841
Au     18.58123     14.42487     15.29171         0.054385      0.013187      0.049929
Au     16.35761     16.14031     14.59905        -0.001341     -0.010372      0.003069
Au     16.06377     13.18147     15.50661         0.083134     -0.043094     -0.054208
Au     14.72537     19.32129     15.12850         0.067937      0.030677     -0.059567
Au     15.89178     17.61615     17.04437         0.035563     -0.010627      0.026820
Au     13.10082     17.76686     16.74158        -0.037281     -0.019153      0.033275
Au     16.84342     14.96735     17.44365         0.006080      0.013559      0.009766
Au     17.46249     18.85396     15.00501        -0.044319     -0.021741     -0.012509
Au     18.59987     16.92716     16.65199         0.032653      0.046139      0.042005
