19
# total energy = -47.30152441 eVAu     13.97301     13.93429     13.28949        -0.008364     -0.001212      0.007175
Au     11.23231     14.37752     12.93813         0.031402     -0.017840     -0.024908
Au     16.55208     18.59082     11.89769        -0.043990      0.014232     -0.033512
Au     15.56996     15.91947     12.04030         0.032331     -0.008826     -0.015905
Au     17.28584     16.94098     14.01783        -0.000349      0.023228      0.008544
Au     11.53023     17.25741     13.28785         0.060162      0.040400      0.028306
Au     12.92397     15.82256     11.34219         0.029257     -0.022010     -0.020088
Au     16.63438     14.27237     14.07840        -0.016551     -0.001544      0.003792
Au     13.86845     18.29845     12.26149        -0.082311     -0.053247      0.028944
Au     11.79388     17.20911     16.28727         0.052340      0.058500     -0.021517
Au     14.10277     16.51455     14.57935         0.057573      0.005325     -0.021471
Au     15.57174     19.03406     14.52246        -0.030331      0.049468     -0.019461
Au     16.22529     16.20071     16.39527         0.029773     -0.074222      0.052313
Au     14.30317     18.33923     16.88329         0.021966      0.025733     -0.026066
Au     13.78156     15.71432     17.62517        -0.071567     -0.018334     -0.024012
Au      9.87351     15.81027     14.88940        -0.016230      0.010525     -0.012843
Au     12.81457     19.30956     14.68070        -0.008629     -0.040350      0.070113
Au     14.87429     13.69625     16.05790        -0.089157      0.032282     -0.035535
Au     12.27572     14.47374     15.52626         0.052676     -0.022106      0.056131
