19
# total energy = -47.42662318 eVAu     18.42295     18.88961     12.37043         0.006187     -0.021800      0.001190
Au     18.91952     14.28271     13.04616        -0.032881      0.027726      0.018895
Au     13.71184     16.93576     14.14439        -0.018779     -0.007279     -0.060396
Au     16.35123     13.75965     12.38469        -0.025258      0.037972     -0.037659
Au     14.71511     15.94286     11.77757         0.029575      0.009995      0.010627
Au     17.48306     16.33024     11.77225         0.018413     -0.011153     -0.012199
Au     14.04559     14.12417     13.83212        -0.050484      0.022599      0.001584
Au     19.27506     16.86336     14.09137         0.018796     -0.010417     -0.012016
Au     15.71014     18.36534     12.74061         0.005447     -0.020983      0.003565
Au     14.38825     15.21796     16.33286         0.006685     -0.035164      0.002575
Au     18.94237     14.53063     15.73789         0.020696      0.051563      0.020660
Au     16.53524     16.04478     14.48363        -0.035809     -0.022951      0.032561
Au     16.39932     13.34527     15.20902         0.003385      0.069854     -0.018431
Au     14.71411     19.40659     15.11806         0.001405     -0.100258      0.022135
Au     15.88141     17.58100     16.95193         0.053387      0.014769      0.032537
Au     13.13302     17.67301     16.73866         0.020726     -0.014154     -0.013081
Au     16.87159     14.96458     17.48893        -0.020755      0.031682      0.040505
Au     17.44041     18.87996     14.97938         0.002311     -0.021497     -0.000114
Au     18.58902     17.09548     16.79100        -0.003046     -0.000502     -0.032937
