19
# total energy = -47.30888480 eVAu     15.20620     15.15782     15.33077        -0.021975      0.074479     -0.027850
Au     15.29810     13.07899     13.38345        -0.020653     -0.073197     -0.111502
Au     16.90512     17.22626     14.08168         0.034688      0.007718     -0.032634
Au     17.69630     14.54365     13.68167         0.004591     -0.092537      0.081296
Au     19.45844     16.32009     14.90160         0.040244      0.027408     -0.099668
Au     13.14701     14.99388     13.37547         0.019364      0.069574     -0.027336
Au     15.61177     15.55107     12.11793        -0.011592     -0.029166      0.073966
Au     14.26215     17.57788     13.44174         0.059854      0.107220      0.015627
Au     12.58750     17.15087     15.52267        -0.044902     -0.013711     -0.016266
Au     17.92742     17.88062     16.61511        -0.008754     -0.014688      0.005482
Au     17.92691     14.94589     16.63306        -0.034126     -0.039671      0.026386
Au     16.40414     16.45222     18.39098        -0.052219      0.065899      0.049679
Au     13.76893     15.98849     17.78502        -0.003036     -0.050803      0.052549
Au     12.33556     14.42957     15.90939         0.042482     -0.042239     -0.040769
Au     13.12854     13.22731     18.29286         0.020039      0.042246      0.045682
Au     15.18240     17.92236     16.21096        -0.089396     -0.024029      0.019867
Au     15.75588     13.78869     17.84256         0.076088      0.033827     -0.007455
Au     14.22134     12.39541     15.83400         0.083129     -0.026250      0.021441
Au     16.99714     12.57223     15.57057        -0.093825     -0.022081     -0.028495
