19
# total energy = -47.44394590 eVAu     14.66346     13.51889     12.74136        -0.018101     -0.044225     -0.055865
Au     12.28866     14.80132     13.45463        -0.007291      0.001906     -0.020989
Au     16.33232     17.94459     12.03128        -0.022015      0.006751     -0.017005
Au     16.73612     15.29987     12.92603         0.046090     -0.005033     -0.001152
Au     18.55220     17.26664     13.62662         0.034231     -0.019807      0.035973
Au     11.73881     17.23306     12.21331        -0.029763      0.007750     -0.022501
Au     14.25728     16.11238     11.81725        -0.011218     -0.009680      0.013604
Au     13.93804     18.55082     13.29938        -0.010497     -0.009314      0.014304
Au     11.95776     17.32542     14.98748        -0.009713      0.016434     -0.010552
Au     14.53952     16.01451     14.82260        -0.008832      0.051503     -0.088839
Au     16.32958     18.40720     14.81399         0.038383      0.015265      0.009246
Au     17.34383     15.85433     15.69005         0.015461      0.005256     -0.012940
Au     15.86757     17.39599     17.41941        -0.039332      0.011353      0.022904
Au     13.18386     16.74800     17.51964         0.026028     -0.006280      0.029242
Au     11.81643     14.81582     16.20852         0.056050     -0.019416      0.037276
Au     13.94994     18.96640     16.05127        -0.030893      0.066582      0.009556
Au     15.10594     14.66320     17.16737        -0.018071     -0.026915      0.039093
Au     13.66540     13.06777     15.28415         0.025632     -0.013136      0.023241
Au     16.39417     13.37612     14.97773        -0.036148     -0.028995     -0.004595
