19
# total energy = -47.34380339 eVAu     14.57831     13.50038     12.87580         0.012114     -0.011885     -0.055755
Au     12.23111     14.83017     13.42862         0.009484      0.022385      0.055149
Au     16.29997     17.91710     12.07386         0.157445      0.022781     -0.006815
Au     16.79068     15.24685     12.86399         0.084442      0.047585      0.030500
Au     18.61326     17.33794     13.52327        -0.189460     -0.035252      0.017505
Au     11.77283     17.26348     12.17236        -0.036216      0.007288     -0.018540
Au     14.26999     16.06964     11.85670        -0.057904     -0.038932     -0.036804
Au     13.94705     18.54025     13.35956        -0.069797      0.038445      0.006327
Au     11.90492     17.32351     14.94455         0.021869     -0.056008      0.007552
Au     14.77440     16.07572     14.77081        -0.129900     -0.053441      0.063146
Au     16.36564     18.49674     14.84002         0.097541     -0.034951     -0.014844
Au     17.48697     15.91674     15.61602         0.026499     -0.011579      0.023483
Au     15.82676     17.32527     17.36847         0.063398     -0.026089      0.008278
Au     13.23949     16.31805     17.25299         0.010086      0.026427      0.030810
Au     11.27734     14.83938     16.05207        -0.023195     -0.002764     -0.010813
Au     13.87998     18.83896     16.12260        -0.000190      0.055059     -0.009746
Au     15.45911     14.57677     17.38207        -0.047332      0.069007     -0.115914
Au     13.60908     13.50148     15.54000         0.004270     -0.033517     -0.003916
Au     16.33402     13.44389     15.00832         0.066848      0.015442      0.030397
