19
# total energy = -47.33073638 eVAu     18.39283     18.93996     12.38217         0.017529      0.010643     -0.015918
Au     19.35001     14.45047     12.67503        -0.004071     -0.041502      0.012707
Au     13.61636     16.94164     14.09354        -0.033200     -0.023776      0.018299
Au     16.66677     13.86630     12.81116        -0.018024     -0.027167     -0.041996
Au     14.86630     15.82667     11.82422        -0.044632      0.028127     -0.058059
Au     17.56144     16.36459     11.74628        -0.019843      0.003139      0.011964
Au     14.09381     14.14858     13.86584        -0.041367     -0.004315      0.013109
Au     19.31376     16.88612     14.01371        -0.017282      0.003769      0.014913
Au     15.69937     18.31670     12.72725         0.017129      0.015289      0.016890
Au     14.27125     15.28879     16.40697        -0.039385      0.014994      0.026945
Au     18.60754     14.44384     15.32227         0.039900     -0.009477      0.034157
Au     16.34502     16.12816     14.61160         0.057657     -0.032758     -0.037690
Au     16.09827     13.16773     15.48314         0.059296      0.020632     -0.050703
Au     14.73077     19.31417     15.12596         0.016298      0.047714     -0.023480
Au     15.90130     17.62173     17.05004        -0.021197     -0.020085      0.034131
Au     13.09390     17.77643     16.74478         0.032588     -0.043631     -0.014967
Au     16.84818     14.96845     17.43000        -0.022869      0.001136      0.037194
Au     17.46007     18.84092     15.00548        -0.014278      0.005110     -0.023567
Au     18.61228     16.94167     16.67150         0.035753      0.052158      0.046069
