19
# total energy = -46.98507190 eVAu     17.90783     17.22619     12.73445         0.301292     -0.061629     -0.033012
Au     18.56333     14.57970     11.88223        -0.071494      0.120562      0.207090
Au     16.12436     13.32191     12.36299         0.044840     -0.092260     -0.063219
Au     13.58440     16.24646     11.75416        -0.097366      0.018899     -0.067335
Au     16.19163     15.73039     10.98086         0.046970     -0.009428     -0.110064
Au     13.51725     13.83820     13.13630        -0.099699     -0.065500     -0.019833
Au     15.48909     18.25694     11.88017        -0.020421      0.094093     -0.138429
Au     13.61409     14.84197     15.82702        -0.271058      0.105066      0.107830
Au     17.81814     14.00968     14.58043         0.302832     -0.009114     -0.062922
Au     11.81767     15.91544     13.88261         0.204778      0.066964      0.125183
Au     15.59786     15.80931     13.88108        -0.043348     -0.060619     -0.106111
Au     15.33878     12.85461     14.98049        -0.029293     -0.166176      0.008715
Au     13.70373     18.05881     13.98122        -0.274215      0.051974      0.136897
Au     15.12047     17.27431     16.41046        -0.173297      0.035573      0.055434
Au     12.30882     17.28919     16.30009         0.252351     -0.109948     -0.178044
Au     16.24362     14.78174     16.74472         0.034927     -0.095153      0.183481
Au     16.35464     18.77088     14.45544         0.044251      0.205194      0.009015
Au     17.81335     16.74104     15.61202         0.174887     -0.032651     -0.046890
Au     19.93774     15.77849     14.03767        -0.326939      0.004155     -0.007785
