19
# total energy = -47.22309185 eVAu     14.52366     12.78570     13.59012        -0.039861     -0.063363      0.055786
Au     12.21150     14.08048     14.33802         0.069223      0.091714     -0.098788
Au     16.65094     16.84100     12.47783        -0.077856     -0.014887      0.001536
Au     16.82750     14.29164     13.51110         0.161318     -0.014206      0.086555
Au     18.68623     16.29243     14.25925        -0.034406     -0.022768      0.002121
Au     12.06674     16.78142     13.63959         0.025849     -0.048945      0.014323
Au     14.26111     15.37551     12.61440        -0.121847      0.046486      0.069225
Au     14.45449     18.13378     13.48817        -0.017823      0.049199     -0.092913
Au     11.15420     16.10516     16.13867         0.053884      0.111353     -0.007498
Au     14.78006     14.98790     15.45100         0.039094      0.030165     -0.034116
Au     16.38927     17.47287     15.35202         0.000506      0.009199     -0.039530
Au     17.51464     15.03942     16.43209        -0.038453     -0.029569     -0.024118
Au     15.50577     16.54320     17.77771         0.042728     -0.041816      0.067708
Au     13.12466     15.15236     17.80678        -0.106882     -0.117877      0.015797
Au     11.05315     13.43493     16.81360         0.118919      0.027450      0.015828
Au     13.56403     17.53526     16.04222        -0.068403     -0.035399     -0.004777
Au     15.55110     13.75236     18.05524        -0.009624     -0.033843     -0.093540
Au     13.62608     12.50802     16.30087        -0.039600      0.002152      0.027304
Au     16.38868     12.51509     15.66501         0.043233      0.054955      0.039096
