19
# total energy = -47.34162553 eVAu     15.14754     15.19330     15.29656         0.055456     -0.050809     -0.040147
Au     15.23731     13.06531     13.37821        -0.041617      0.002120      0.094582
Au     16.92807     17.21742     14.09045        -0.066490      0.020246     -0.038704
Au     17.67808     14.49953     13.73026         0.001363      0.011090     -0.043700
Au     19.46304     16.33096     14.85701         0.033226     -0.032764     -0.010108
Au     13.12009     15.07735     13.29411        -0.033663      0.055463      0.052590
Au     15.62112     15.54101     12.15462         0.017878      0.054077      0.052454
Au     14.29861     17.64331     13.45751         0.036105      0.011878      0.026536
Au     12.58837     17.12262     15.51594         0.018776     -0.103402     -0.015863
Au     17.92840     17.86510     16.61544        -0.001875      0.004117      0.008810
Au     17.90369     14.96155     16.60619         0.017043      0.016415     -0.000722
Au     16.39216     16.48807     18.41399        -0.045201     -0.019556     -0.002283
Au     13.74970     15.96986     17.82672         0.005986      0.068509     -0.090130
Au     12.42819     14.36671     15.84057        -0.033015      0.038270     -0.049399
Au     13.14316     13.26966     18.30433         0.025754     -0.044914      0.047191
Au     15.16256     17.90809     16.24009        -0.004939      0.003685      0.001902
Au     15.77969     13.82125     17.84181        -0.011292     -0.002558     -0.028549
Au     14.27382     12.31113     15.90019         0.022834     -0.008213     -0.027645
Au     16.97726     12.55108     15.55749         0.003671     -0.023654      0.063184
