19
# total energy = -47.08244200 eVAu     14.56705     13.59972     12.96849        -0.016883     -0.533906     -0.358710
Au     12.24489     14.87228     13.46124        -0.343607     -0.213303     -0.182240
Au     16.29720     17.90522     12.09274         0.175748      0.229524     -0.339836
Au     16.76698     15.28165     12.92112         0.313668     -0.134435     -0.323779
Au     18.55009     17.31112     13.55346         0.415127      0.105421     -0.082813
Au     11.80317     17.26643     12.17561        -0.301095      0.127559     -0.273255
Au     14.27281     16.08825     11.87108        -0.064821     -0.064870     -0.461316
Au     13.95458     18.51969     13.35084        -0.127324      0.422722     -0.167109
Au     11.92982     17.27885     14.92595        -0.396317      0.191131      0.062375
Au     14.71628     16.09022     14.73498         0.074541     -0.018185      0.045830
Au     16.35540     18.42523     14.83439         0.244299      0.402586      0.000567
Au     17.47379     15.90402     15.63405         0.363689     -0.023266      0.114337
Au     15.84277     17.32845     17.34347         0.148730      0.155890      0.440978
Au     13.27405     16.18415     17.17456        -0.166358      0.172020      0.455285
Au     11.19171     14.85680     16.00353        -0.335118     -0.148088      0.171316
Au     13.89792     18.71117     16.07911        -0.158815      0.545915      0.300321
Au     15.56666     14.63473     17.30935         0.027080     -0.282206      0.472307
Au     13.60758     13.63651     15.62413        -0.078752     -0.507355      0.040595
Au     16.34817     13.46785     14.99401         0.226209     -0.427153      0.085147
