19
# total energy = -43.69387255 eVAu     13.91678     12.32690     13.84770         0.010690      0.045035     -0.021778
Au     12.16692     19.45541     13.84583         0.043140     -0.037977     -0.010559
Au     19.21207     17.40305     13.84854        -0.005894      0.020061     -0.039695
Au     11.24377     16.87794     13.42961        -0.047487      0.036581     -0.028541
Au     17.44597     19.49319     13.42866         0.039037      0.023720     -0.010208
Au     16.60896     12.81202     13.42832         0.008438     -0.006394      0.013153
Au     17.47215     15.32716     13.96072        -0.027317     -0.046663      0.019302
Au     12.98522     14.88006     13.95989         0.028519     -0.041300      0.020171
Au     14.84396     18.98368     13.95838        -0.046096      0.004053      0.037232
Au     16.28194     20.46454     15.84390        -0.010690     -0.045035      0.021778
Au     18.03180     13.33603     15.84577        -0.043140      0.037977      0.010559
Au     10.98665     15.38839     15.84306         0.005894     -0.020061      0.039695
Au     15.09936     16.39572     14.84580        -0.000000     -0.000000     -0.000000
Au     18.95495     15.91350     16.26199         0.047487     -0.036581      0.028541
Au     12.75275     13.29822     16.26294        -0.039037     -0.023720      0.010208
Au     13.58976     19.97939     16.26328        -0.008438      0.006394     -0.013153
Au     12.72660     17.46428     15.73088         0.027317      0.046663     -0.019302
Au     17.21350     17.91138     15.73171        -0.028519      0.041300     -0.020171
Au     15.35476     13.80773     15.73322         0.046096     -0.004053     -0.037232
