19
# total energy = -47.39331881 eVAu     14.90580     14.19769     11.81051        -0.003886      0.017535      0.011275
Au     12.22547     14.89584     11.88297        -0.020050     -0.001832     -0.010753
Au     15.98110     18.73004     10.82806         0.018530     -0.032935      0.058130
Au     16.66760     16.24001     11.95193        -0.023866      0.010506      0.020356
Au     18.50309     18.30653     12.06743        -0.089318     -0.031787      0.031379
Au     11.62127     17.56414     11.80602         0.014801     -0.008270      0.018176
Au     14.07490     16.71750     10.75175         0.034266      0.017757      0.001365
Au     13.73432     19.32524     12.33924         0.034563     -0.001177     -0.009714
Au     11.71643     18.78861     14.25183        -0.020957      0.007778     -0.006615
Au     14.18755     16.80632     13.60222         0.054476      0.018685     -0.020391
Au     16.30996     18.97346     13.61588        -0.016200     -0.027666     -0.005348
Au     17.92401     16.80474     14.40928        -0.039959      0.025732     -0.050236
Au     15.69628     17.38070     15.95593         0.027681      0.004732     -0.023679
Au     12.91985     17.59572     16.47118        -0.005784     -0.004301      0.022136
Au     11.72702     15.95175     14.47839         0.022086      0.007255     -0.008871
Au     14.19008     19.66602     15.13866         0.000179     -0.017873     -0.008421
Au     14.08493     15.12281     16.34840        -0.007373      0.010861     -0.020202
Au     13.43005     13.70290     14.10207        -0.006647     -0.018502      0.014368
Au     16.03730     14.77336     14.36982         0.027458      0.023502     -0.012956
