19
# total energy = -47.25576185 eVAu     14.56419     12.77138     13.62691        -0.011013      0.012153     -0.016601
Au     12.23973     14.12345     14.31264        -0.001002     -0.004543     -0.003881
Au     16.58112     16.78374     12.49242         0.009822      0.003086     -0.018382
Au     16.89692     14.25391     13.55193         0.004586      0.006402      0.020884
Au     18.67110     16.31975     14.24714        -0.030745      0.001713      0.025133
Au     12.04722     16.82441     13.64476        -0.003344     -0.007899     -0.027074
Au     14.21286     15.36404     12.64411        -0.028038      0.011409     -0.005057
Au     14.42550     18.17668     13.44560         0.017328     -0.009512     -0.008826
Au     11.18267     16.17101     16.15295        -0.042255     -0.009978      0.029669
Au     14.79720     14.99367     15.44250         0.034603     -0.035754      0.020446
Au     16.35320     17.48012     15.33800         0.004791     -0.011033      0.018861
Au     17.51196     15.04866     16.43022        -0.009498     -0.000615     -0.024607
Au     15.48666     16.50054     17.78993         0.011692      0.033139     -0.033237
Au     13.10985     15.10017     17.81725         0.009983     -0.009257     -0.005868
Au     11.07914     13.47748     16.78514        -0.013066     -0.025977     -0.018466
Au     13.57346     17.53898     16.02759         0.052334      0.022703      0.021691
Au     15.54184     13.71290     18.03185         0.006340     -0.008132     -0.004456
Au     13.62723     12.49384     16.28371        -0.018072      0.010369      0.015460
Au     16.43198     12.49383     15.68901         0.005554      0.021726      0.014312
