19
# total energy = -43.65301969 eVAu     13.90375     12.30598     13.87405         0.018320      0.065132     -0.017527
Au     12.15518     19.47549     13.87265         0.047498     -0.046814     -0.017400
Au     19.23909     17.40540     13.87370        -0.069875     -0.020865     -0.015843
Au     11.28487     16.87305     13.34679        -0.004942      0.049078      0.101628
Au     17.41996     19.46080     13.34720         0.046109     -0.020526      0.100754
Au     16.59368     12.85325     13.34847        -0.040151     -0.034366      0.096454
Au     17.48397     15.32466     14.00246         0.038857      0.074336      0.005280
Au     12.97924     14.86513     14.00202         0.042600     -0.059819      0.005033
Au     14.83364     18.99695     14.00202        -0.071859     -0.007869      0.001955
Au     16.29497     20.48546     15.81755        -0.018320     -0.065132      0.017527
Au     18.04354     13.31595     15.81895        -0.047498      0.046814      0.017400
Au     10.95963     15.38604     15.81790         0.069875      0.020865      0.015843
Au     15.09936     16.39572     14.84580        -0.000000      0.000000      0.000000
Au     18.91385     15.91839     16.34481         0.004942     -0.049078     -0.101628
Au     12.77876     13.33061     16.34440        -0.046109      0.020526     -0.100754
Au     13.60504     19.93816     16.34313         0.040151      0.034366     -0.096454
Au     12.71478     17.46678     15.68914        -0.038857     -0.074336     -0.005280
Au     17.21948     17.92631     15.68958        -0.042600      0.059819     -0.005033
Au     15.36508     13.79446     15.68958         0.071859      0.007869     -0.001955
