19
# total energy = -47.14584906 eVAu     15.51343     15.28514     15.34622         0.004492     -0.035295     -0.028430
Au     15.40574     13.01959     13.30051         0.010739     -0.016302      0.010047
Au     17.01178     17.33229     13.97190        -0.086098     -0.021858      0.007471
Au     17.81141     14.49904     13.72406        -0.038931     -0.023099     -0.023332
Au     19.53326     16.40041     14.76966        -0.058381     -0.054001      0.071946
Au     13.24290     14.86172     13.69847         0.017376      0.038557     -0.035288
Au     15.63620     15.53615     12.24972        -0.039252      0.003171      0.007331
Au     14.30316     17.57373     13.51161         0.003577     -0.002048     -0.023769
Au     12.54137     17.01524     15.49484         0.007579      0.045636     -0.012279
Au     17.92097     17.83152     16.54173        -0.041995     -0.006687      0.003986
Au     18.06698     14.92503     16.64346        -0.051742     -0.029036      0.040316
Au     16.34522     16.42430     18.28021        -0.009044      0.001973      0.045789
Au     13.74177     15.82394     17.67298         0.026963      0.090466      0.047018
Au     11.81623     14.41127     16.07315         0.123471      0.035253     -0.040692
Au     13.08261     13.18022     18.25322         0.081809      0.029562     -0.002333
Au     15.12371     17.96055     16.20444        -0.037393     -0.062198      0.029885
Au     15.76945     13.73681     17.88122         0.060155      0.061986     -0.035784
Au     14.06049     12.78313     15.69333         0.056962     -0.055176     -0.054595
Au     16.89416     12.60323     15.61078        -0.030286     -0.000904     -0.007287
