19
# total energy = -47.39540320 eVAu     18.41331     18.89017     12.37801         0.038064      0.069790     -0.046033
Au     19.13685     14.35674     12.86135        -0.103257     -0.041788      0.089120
Au     13.65340     16.94362     14.11038         0.012816     -0.049426     -0.005016
Au     16.46665     13.82307     12.49199        -0.022428     -0.057707      0.069645
Au     14.73043     15.90229     11.76204         0.006428      0.014970      0.008377
Au     17.49367     16.33971     11.79072         0.028691     -0.012909     -0.057409
Au     14.06526     14.15703     13.85365         0.016640     -0.027446      0.002595
Au     19.25875     16.86518     14.07464         0.064877     -0.003406     -0.010996
Au     15.71650     18.30010     12.75581        -0.043285      0.070624     -0.041241
Au     14.30312     15.26067     16.38865         0.064088     -0.013985     -0.045341
Au     18.86023     14.53552     15.58931        -0.058713     -0.068724      0.022670
Au     16.43958     15.99617     14.56840         0.044046      0.084334     -0.053094
Au     16.31778     13.28363     15.28674         0.004681     -0.007462     -0.003070
Au     14.73510     19.36239     15.11203        -0.028586      0.074103      0.004499
Au     15.89569     17.61076     17.01168         0.017299     -0.048670      0.003234
Au     13.13506     17.74869     16.71961        -0.052318     -0.050430      0.052333
Au     16.84960     14.98545     17.45685         0.008020     -0.029633     -0.008231
Au     17.44153     18.81316     14.98818         0.012312      0.087589      0.029364
Au     18.61673     17.05857     16.79090        -0.009375      0.010176     -0.011407
