19
# total energy = -47.25110196 eVAu     14.56136     13.57144     12.94047         0.054948     -0.316104     -0.079586
Au     12.22809     14.84105     13.43873        -0.215287      0.126574      0.062209
Au     16.29120     17.92869     12.05288         0.267982     -0.012333      0.078189
Au     16.77706     15.25558     12.89471         0.256574      0.161172     -0.059412
Au     18.60953     17.32198     13.54838        -0.228818     -0.022982     -0.011628
Au     11.76426     17.28307     12.13987         0.137943     -0.066980      0.138430
Au     14.28287     16.07555     11.83664        -0.209941      0.077448     -0.133807
Au     13.95807     18.55738     13.34708        -0.206354      0.042539     -0.153762
Au     11.90495     17.30920     14.94097        -0.177796     -0.150542     -0.108747
Au     14.72097     16.09228     14.73258         0.053951     -0.048434      0.091075
Au     16.35722     18.46181     14.84618         0.274332      0.029830     -0.140650
Au     17.50356     15.89647     15.65284         0.054667      0.076727     -0.116498
Au     15.85797     17.34409     17.37766        -0.024651     -0.028410      0.091843
Au     13.26359     16.19633     17.21347        -0.060718      0.082707      0.059509
Au     11.14856     14.83882     16.02380         0.168681      0.056544     -0.058310
Au     13.88379     18.74724     16.09015        -0.013907      0.220017      0.246705
Au     15.57378     14.61254     17.34727        -0.076426     -0.057179      0.079768
Au     13.60418     13.59502     15.63041        -0.038023     -0.099692     -0.050272
Au     16.36990     13.43380     14.99801        -0.017157     -0.070903      0.064943
