19
# total energy = -43.58061394 eVAu     13.90550     12.31076     13.81602        -0.032017      0.053319      0.140516
Au     12.15948     19.47293     13.81604         0.059944     -0.002631      0.138772
Au     19.23375     17.40344     13.81579        -0.030482     -0.053363      0.141035
Au     11.37340     16.87754     13.30092        -0.104021     -0.068858      0.087628
Au     17.38086     19.38080     13.30135        -0.011083      0.126878      0.087364
Au     16.54427     12.92755     13.30212         0.114450     -0.055272      0.087357
Au     17.49217     15.34708     14.02131         0.046251     -0.072309      0.001427
Au     12.99567     14.84741     14.01993        -0.088236     -0.004141      0.002646
Au     14.81118     18.99117     14.01945         0.040092      0.080073      0.003984
Au     16.29322     20.48068     15.87558         0.032017     -0.053319     -0.140516
Au     18.03924     13.31851     15.87556        -0.059944      0.002631     -0.138772
Au     10.96497     15.38800     15.87581         0.030482      0.053363     -0.141035
Au     15.09936     16.39572     14.84580         0.000000      0.000000      0.000000
Au     18.82532     15.91390     16.39068         0.104021      0.068858     -0.087628
Au     12.81786     13.41061     16.39025         0.011083     -0.126878     -0.087364
Au     13.65445     19.86386     16.38948        -0.114450      0.055272     -0.087357
Au     12.70658     17.44436     15.67029        -0.046251      0.072309     -0.001427
Au     17.20305     17.94403     15.67167         0.088236      0.004141     -0.002646
Au     15.38754     13.80024     15.67215        -0.040092     -0.080073     -0.003984
