19
# total energy = -47.26690220 eVAu     14.00583     13.90706     13.29359        -0.016856     -0.018899      0.030479
Au     11.28670     14.38642     12.95935        -0.000559      0.015687     -0.005520
Au     16.47666     18.62818     11.89073         0.108379     -0.011566      0.020753
Au     15.60856     15.91565     12.05662        -0.015821      0.014492     -0.016077
Au     17.41193     16.91289     13.92220        -0.017170      0.032132      0.025506
Au     11.49713     17.29964     13.22436         0.031914     -0.015496      0.047483
Au     12.98910     15.79708     11.33831        -0.059333      0.029039      0.035153
Au     16.66799     14.26435     14.08699        -0.037249     -0.004429      0.036507
Au     13.83913     18.30549     12.27842        -0.054626     -0.011726      0.017100
Au     11.77248     17.21950     16.33096        -0.004382     -0.004869     -0.035681
Au     13.97597     16.47254     14.54850        -0.014053      0.044795     -0.015252
Au     15.59246     18.86890     14.58301         0.027720      0.051943     -0.053998
Au     16.18025     16.29218     16.27955         0.075267     -0.043066      0.037793
Au     14.31368     18.36930     16.97630        -0.084292      0.020222     -0.060065
Au     13.77794     15.74382     17.61675        -0.015091     -0.027528      0.032073
Au      9.86896     15.85092     14.83768         0.025679     -0.003812      0.039024
Au     12.84021     19.26029     14.75230         0.000732     -0.012542     -0.046084
Au     14.85151     13.75877     16.04259         0.045567     -0.042753     -0.054869
Au     12.23025     14.46272     15.58223         0.004171     -0.011625     -0.034323
