19
# total energy = -47.26060759 eVAu     12.99499     12.99615     13.60410        -0.016373     -0.026662     -0.004512
Au     10.79106     14.69065     13.89383         0.005732      0.003242      0.003433
Au     14.03315     17.48600     12.82340        -0.003049     -0.003762      0.007098
Au     15.17162     14.85817     13.39057        -0.005420      0.003345      0.004917
Au     16.58787     17.19332     13.85369        -0.069340     -0.024242      0.025834
Au     11.17896     17.18779     12.69954        -0.027796      0.003537     -0.011878
Au     12.81815     15.14056     11.90931         0.012093     -0.000450     -0.027582
Au     12.30071     19.09385     14.31532         0.008989      0.026888     -0.011342
Au     10.46668     17.16910     15.40216         0.007958     -0.003189     -0.000495
Au     13.10687     15.96075     15.13015        -0.000336     -0.000349     -0.000342
Au     14.71276     18.36317     15.52369        -0.004749     -0.007506     -0.002000
Au     15.85123     15.73543     16.09091        -0.008136      0.001335     -0.003232
Au     14.35133     17.11940     18.00068         0.023869      0.012549      0.014601
Au     11.75229     15.93116     17.71260         0.003882      0.000201     -0.007865
Au      9.62611     14.72831     16.40665         0.069780      0.024804     -0.026111
Au     12.26305     18.58707     17.00677        -0.020575      0.013678      0.019214
Au     14.07919     14.39546     17.91128        -0.007599     -0.015860      0.025441
Au     12.07672     13.45274     16.20426         0.003493      0.006807     -0.002764
Au     14.86880     13.16606     15.59460         0.027579     -0.014366     -0.002414
