19
# total energy = -43.59789252 eVAu     13.90284     12.31819     13.82992        -0.022008     -0.010831      0.058511
Au     12.16700     19.47076     13.82984         0.000045      0.026613      0.054983
Au     19.22866     17.39743     13.82972         0.019312     -0.011633      0.058555
Au     11.37062     16.86694     13.31190        -0.168596      0.033894      0.007571
Au     17.37247     19.38903     13.31210         0.114297      0.127505      0.010162
Au     16.55552     12.93065     13.31304         0.052845     -0.164493      0.009770
Au     17.49786     15.33464     14.02406         0.007550      0.052146     -0.047270
Au     12.98201     14.84875     14.02250         0.035786     -0.032423     -0.042316
Au     14.81911     19.00249     14.02216        -0.048501     -0.015162     -0.042968
Au     16.29588     20.47325     15.86168         0.022008      0.010831     -0.058511
Au     18.03172     13.32068     15.86176        -0.000045     -0.026613     -0.054983
Au     10.97006     15.39401     15.86188        -0.019312      0.011633     -0.058555
Au     15.09936     16.39572     14.84580         0.000000     -0.000000      0.000000
Au     18.82810     15.92450     16.37970         0.168596     -0.033894     -0.007571
Au     12.82625     13.40238     16.37950        -0.114297     -0.127505     -0.010162
Au     13.64320     19.86076     16.37856        -0.052845      0.164493     -0.009770
Au     12.70089     17.45680     15.66754        -0.007550     -0.052146      0.047270
Au     17.21671     17.94269     15.66910        -0.035786      0.032423      0.042316
Au     15.37961     13.78892     15.66944         0.048501      0.015162      0.042968
