19
# total energy = -47.35436015 eVAu     18.43267     18.92029     12.35617        -0.137310     -0.142013      0.138799
Au     19.22780     14.38528     12.78471        -0.130862     -0.025064      0.105439
Au     13.60369     16.91814     14.08024         0.084399      0.115960      0.083169
Au     16.51903     13.85150     12.60303         0.030368     -0.052074     -0.104409
Au     14.74005     15.88912     11.73808         0.089011     -0.035086      0.076284
Au     17.51093     16.34069     11.78610        -0.006277      0.084099     -0.032191
Au     14.09237     14.17750     13.88659        -0.068213     -0.105489     -0.118314
Au     19.26801     16.86311     14.05896         0.008987      0.092216     -0.009898
Au     15.70603     18.28066     12.75603         0.084177      0.074441      0.004821
Au     14.27686     15.28163     16.40434        -0.006107      0.033408     -0.004326
Au     18.76475     14.52012     15.50895         0.115010     -0.027495      0.009603
Au     16.40798     16.01707     14.58772        -0.011802      0.106699     -0.014112
Au     16.28276     13.22780     15.32635        -0.046610     -0.037504      0.046884
Au     14.73454     19.33804     15.11780         0.042623      0.009268     -0.034576
Au     15.91532     17.60589     17.07179        -0.079104      0.069104     -0.130045
Au     13.13718     17.77790     16.71139        -0.047903     -0.084166      0.055621
Au     16.82183     14.99011     17.41878         0.115802     -0.053834      0.117278
Au     17.44286     18.79713     15.00340         0.002351      0.050180     -0.100830
Au     18.64459     17.05094     16.79052        -0.038541     -0.072650     -0.089198
