19
# total energy = -47.46466034 eVAu     14.64616     13.50435     12.69338         0.024691      0.002304     -0.022711
Au     12.28042     14.79235     13.46613        -0.011903     -0.013024      0.001037
Au     16.33156     17.90925     12.08828        -0.007174      0.036696     -0.061441
Au     16.75012     15.26595     12.91967        -0.009355     -0.038676     -0.033691
Au     18.55033     17.22418     13.69459         0.053049      0.006893     -0.001326
Au     11.72269     17.22730     12.21733        -0.015632     -0.008914      0.011908
Au     14.24013     16.10774     11.81732         0.015903     -0.010394     -0.062816
Au     13.92029     18.54755     13.30138         0.009358      0.066647     -0.019711
Au     11.94973     17.31836     15.00028        -0.015046      0.002981      0.009283
Au     14.53759     16.06061     14.74608        -0.004946      0.006884     -0.012177
Au     16.33646     18.43103     14.84190        -0.022340      0.045350      0.016481
Au     17.28143     15.83271     15.71118         0.090259      0.006935      0.002528
Au     15.86236     17.43553     17.42410        -0.003506      0.020432      0.042258
Au     13.19576     16.82954     17.55886        -0.036693      0.052068      0.071365
Au     11.99526     14.81298     16.25402        -0.001626     -0.029285      0.036518
Au     13.92585     19.01294     16.03912         0.024217      0.021274     -0.010687
Au     15.04436     14.69634     17.10081        -0.074106     -0.037616      0.039239
Au     13.69524     13.00033     15.23333        -0.021382     -0.085765     -0.013003
Au     16.39518     13.35328     14.94434         0.006233     -0.044788      0.006948
