19
# total energy = -47.35153814 eVAu     15.16181     15.19179     15.27154         0.037714     -0.034136      0.020912
Au     15.20717     13.05577     13.39221         0.003130      0.037388      0.052442
Au     16.93015     17.22132     14.08325         0.028026      0.053254      0.029750
Au     17.67560     14.48569     13.73675         0.010546     -0.029391     -0.020330
Au     19.46617     16.32442     14.83544        -0.004957     -0.013602      0.029191
Au     13.10738     15.12044     13.29184        -0.022227      0.039169     -0.013173
Au     15.63027     15.54995     12.19079        -0.052460      0.002127     -0.030435
Au     14.31251     17.67430     13.47390        -0.011413      0.034773     -0.010404
Au     12.58946     17.08349     15.50282        -0.010869      0.022106     -0.041618
Au     17.91901     17.85216     16.61377         0.048157      0.010684     -0.020919
Au     17.89965     14.97061     16.60295         0.060153      0.013542     -0.032095
Au     16.37309     16.49597     18.41751        -0.001011     -0.025586      0.031111
Au     13.74312     15.97556     17.80914        -0.011934      0.011995     -0.034348
Au     12.44180     14.34735     15.82098        -0.045597     -0.047712      0.030243
Au     13.16453     13.27573     18.31146        -0.018105     -0.033675      0.020877
Au     15.15478     17.90763     16.25150        -0.008965      0.018118     -0.049430
Au     15.78663     13.83274     17.83281        -0.033531     -0.022838      0.010390
Au     14.28066     12.30008     15.91038        -0.005054     -0.053741      0.007889
Au     16.97704     12.53832     15.57248         0.038397      0.017526      0.019948
