19
# total energy = -47.35999144 eVAu     18.41415     18.92595     12.36908        -0.043270     -0.053536      0.045678
Au     19.27201     14.40767     12.74518        -0.048121     -0.001148      0.037362
Au     13.59981     16.92943     14.08549         0.100679      0.030675      0.008131
Au     16.58101     13.85797     12.68746        -0.022020     -0.019538     -0.087147
Au     14.79064     15.86306     11.76071         0.023568     -0.005195      0.094961
Au     17.52836     16.35389     11.76399        -0.002241      0.013803      0.019151
Au     14.09601     14.16195     13.87778        -0.039097     -0.005264     -0.055889
Au     19.29057     16.87809     14.04378        -0.022263      0.009062     -0.005493
Au     15.70776     18.29504     12.74299         0.006563      0.020301      0.031309
Au     14.26940     15.29823     16.40621         0.038773     -0.057111     -0.017070
Au     18.70137     14.48914     15.43130         0.078902      0.009941      0.044181
Au     16.37490     16.06318     14.60302         0.016931      0.021397     -0.017303
Au     16.21433     13.18947     15.38824        -0.029990      0.050057      0.012410
Au     14.73390     19.32712     15.12068         0.036415      0.003912     -0.028669
Au     15.90691     17.61597     17.07087         0.013830      0.005241     -0.104708
Au     13.11804     17.77595     16.72647        -0.037805     -0.013338      0.032034
Au     16.83461     14.97717     17.42159         0.042372      0.017890      0.049895
Au     17.45244     18.81409     15.00046        -0.032186      0.008927     -0.018545
Au     18.64300     17.00956     16.74562        -0.081040     -0.036075     -0.040287
