58
# total energy = -161.37489836 eVAu     10.11860     13.79013     12.74264        -0.029378      0.012161     -0.001157
Au     11.69795     14.08865     10.40926        -0.017719     -0.016586     -0.016589
Au     12.01848     11.75781     11.96736        -0.015333     -0.028035     -0.021382
Au     12.47815     15.69704     12.86255        -0.000311      0.030483     -0.025830
Au     16.86284     12.63201     12.30505        -0.004809     -0.000182      0.018011
Au     14.17279     13.67702     11.89990         0.027659      0.000362     -0.028734
Au     16.72161     14.69378     10.31167        -0.038501     -0.025480     -0.021991
Au     15.40607     12.29569      9.81071         0.009048      0.010186      0.010086
Au     18.26671     15.01131     12.68217        -0.015604     -0.001655      0.054545
Au     14.09794     14.71332      9.20046         0.009639     -0.027345     -0.032713
Au     14.69522     10.85377     12.07497        -0.006650      0.002851      0.002288
Au     10.04307     16.17798     11.28779        -0.010036     -0.004449      0.009582
Au      9.80168     16.32275     14.03728        -0.023853     -0.016931     -0.031856
Au     11.32659     18.29818     12.60341        -0.006260      0.013813     -0.015747
Au     12.97034     20.02788     14.03584        -0.018869      0.000257      0.005301
Au     12.50984     16.86446     10.18804        -0.015486      0.000506     -0.012138
Au     13.56022     19.20770     11.23773        -0.038536     -0.032157      0.012653
Au     17.75083     17.14792     10.89526         0.009098      0.032509      0.002530
Au     18.68230     19.62254     11.64297         0.010963     -0.001883     -0.006314
Au     15.07287     21.09897     12.61828         0.004926      0.012871     -0.002693
Au     19.26548     17.48460     13.39736         0.005793      0.033805      0.003559
Au     15.17432     17.24712      9.50034         0.002611     -0.003585     -0.000039
Au     16.19532     19.59226     10.49202         0.031097     -0.012014     -0.015624
Au     17.61496     21.20664     13.72487         0.027729     -0.002081      0.012536
Au     16.39174     18.63089     13.17765         0.024893      0.042052     -0.040834
Au     15.23076     16.31424     12.13102        -0.016966     -0.001091      0.004097
Au     20.19542     20.08280     13.89226         0.039954      0.025791      0.012373
Au     12.31712     15.66237     15.73541        -0.011522      0.026309     -0.011885
Au     13.19826     12.59917     19.05683         0.000015     -0.013515     -0.014727
Au      9.93888     13.91898     15.60288        -0.011974      0.014030     -0.003054
Au     13.14587     10.47786     14.35165         0.001427     -0.011367     -0.000985
Au     12.76578     13.26341     14.36239        -0.039488      0.012826     -0.005790
Au     10.51111     11.50194     14.31493        -0.002560     -0.014854     -0.006960
Au     11.25118     14.49010     18.18718         0.002715     -0.022335      0.006830
Au     11.64368     12.03203     16.79699         0.001308     -0.018338      0.015669
Au     14.26869     13.74487     16.76334        -0.007709     -0.101095      0.059918
Au     19.35261     15.51130     15.29973         0.047615     -0.043667      0.000084
Au     15.82867     13.65988     19.17369         0.010239      0.008356     -0.019900
Au     14.18461     10.90054     16.91177         0.021946      0.011622      0.005621
Au     13.61796     15.39131     19.43171        -0.015946      0.006825      0.047928
Au     15.84410     11.24821     14.58238        -0.002930      0.010285      0.021265
Au     15.16208     14.73553     14.39169         0.037099      0.031227     -0.016169
Au     17.89814     14.49434     17.46462        -0.015194     -0.016076      0.019490
Au     16.68931     12.05315     17.08632         0.009670     -0.002757      0.023119
Au     17.72469     13.30284     14.85204         0.035705     -0.003574      0.000602
Au     11.25166     18.33415     15.44809         0.001753      0.027678     -0.002735
Au      9.68238     16.40618     16.79192        -0.013718     -0.008552      0.014787
Au     11.91624     17.29231     18.13273         0.025918      0.018454      0.016740
Au     18.22895     19.29631     15.69401         0.017688      0.003870      0.005863
Au     14.75518     16.46396     16.95915         0.019560      0.011408     -0.009263
Au     16.87819     16.75855     15.13852        -0.021427     -0.025945     -0.022603
Au     15.50905     20.39311     15.35977        -0.008347      0.051591      0.012221
Au     18.53398     17.17629     17.44924         0.007311      0.000845     -0.021610
Au     14.10645     17.49672     14.42182        -0.022091      0.038094      0.029289
Au     14.27334     18.11683     19.30195        -0.001640     -0.020369     -0.015295
Au     13.48757     19.27001     16.82162        -0.023165     -0.021663      0.018807
Au     16.49101     16.35790     19.16148         0.016176      0.007109     -0.019073
Au     16.28084     18.89646     17.59723        -0.003536     -0.000592     -0.002103
