58
# total energy = -160.84658492 eVAu     10.81285     15.10835     13.15532        -0.052061      0.087146      0.043223
Au     12.23639     13.80188     10.94347        -0.037983      0.021133      0.033062
Au     13.23926     13.82046     13.82095        -0.153907      0.005685     -0.011155
Au     13.41855     11.48340     12.08543         0.024086      0.031484     -0.029357
Au     13.65068     15.28322      9.11230         0.021725     -0.082894     -0.021869
Au     10.83330     12.33464     12.80072         0.030654     -0.059969      0.025984
Au     18.20512     12.76504     14.45076         0.123349     -0.089186     -0.034887
Au     14.73957     10.67029     14.34010         0.177373     -0.038927      0.032810
Au     17.49221     14.02900     10.88614        -0.000200     -0.040038      0.059446
Au     17.03572     15.39294     13.50624        -0.136837      0.066913      0.049288
Au     19.51012     14.57106     12.74458         0.189996     -0.074830     -0.075438
Au     14.94070     12.97579     10.13411         0.030022     -0.065686     -0.010485
Au     14.72640     15.08819     11.86803         0.018187      0.052115     -0.069734
Au     16.13439     12.31003     12.60546         0.022987     -0.087485      0.004467
Au     11.94185     17.56601     13.74241        -0.031912     -0.013432      0.010355
Au     12.98406     19.17804     11.77927        -0.002165      0.051697     -0.017570
Au     12.07016     16.60542     11.11079         0.027375      0.001168      0.008247
Au     14.17112     17.92173      9.67546         0.027985      0.049849      0.027056
Au     18.43474     16.74011     11.21311        -0.048982     -0.025027     -0.011785
Au     16.29134     16.05430      9.50557        -0.016835     -0.044895     -0.004519
Au     15.51346     20.40429     12.01819        -0.050718      0.035159     -0.001679
Au     13.98408     19.50174     14.33684        -0.016710      0.167213     -0.024228
Au     16.56132     20.75919     14.60216        -0.032162      0.048323     -0.013535
Au     18.11764     19.32252     12.43538        -0.011146     -0.039470      0.005973
Au     16.81262     18.76576     10.05256        -0.014036     -0.035969      0.001243
Au     15.49326     17.66369     12.33006        -0.064532     -0.021210     -0.034575
Au     19.57397     17.20207     13.76584         0.032919     -0.006520      0.015576
Au     14.51378     16.22901     14.54159        -0.004320      0.132064     -0.016498
Au     12.96690     11.90612     19.18418         0.033235     -0.041652     -0.013807
Au     10.48693     13.27873     15.38942         0.009493      0.025985      0.036794
Au     12.04763     10.75700     14.72095         0.069161      0.057803     -0.066199
Au     13.21409     12.89858     16.41195        -0.059485     -0.139752      0.009486
Au     11.31454     14.02045     18.14618        -0.004579     -0.014705     -0.044901
Au     14.04928     10.33811     17.06355         0.019912      0.016740     -0.063054
Au     13.86238     14.42551     19.76023         0.007735     -0.006512     -0.022053
Au     11.65991     15.72426     15.85829        -0.124381      0.154018     -0.002931
Au     11.07561     11.24988     17.26416         0.006752      0.013746      0.022343
Au     14.38918     15.24713     17.14440        -0.020611     -0.020843      0.014765
Au     19.24120     15.43514     18.31083         0.059986     -0.071453      0.028858
Au     15.60747     12.38424     18.46735        -0.058802     -0.022064      0.014789
Au     19.64203     14.95688     15.52867         0.023876      0.010931      0.048219
Au     16.64240     14.84915     19.27603         0.084527     -0.001910     -0.035066
Au     15.64875     13.50285     15.24491        -0.052360      0.055961     -0.068060
Au     17.05927     15.79008     16.46939        -0.042071     -0.016036     -0.015887
Au     16.69553     11.06385     16.20276        -0.018267     -0.085234     -0.006230
Au     18.03624     13.19090     17.27190         0.064475      0.050270      0.075200
Au     12.38748     18.39409     16.31274        -0.045533     -0.011091     -0.015352
Au     13.25671     19.14563     18.77121         0.056064      0.079026      0.065485
Au     12.28037     16.56728     18.54489        -0.020316      0.014419     -0.028006
Au     19.38144     17.61978     16.60746        -0.013109     -0.054181      0.055695
Au     15.17985     17.87863     16.92212         0.031313     -0.027562      0.008847
Au     16.92946     17.98415     14.74062        -0.014625     -0.096139      0.041483
Au     17.58037     19.81918     17.13571        -0.012584     -0.043586      0.001465
Au     14.89988     17.00908     19.72202         0.049041      0.043489      0.021306
Au     17.63889     17.56530     18.94228        -0.025712     -0.022055     -0.007916
Au     19.21884     19.78350     14.92226         0.039017      0.065643     -0.051232
Au     15.91689     19.65811     19.31959        -0.049640      0.015522      0.042508
Au     14.77721     20.57844     16.78705        -0.044665      0.046814      0.014035
