58
# total energy = -161.26331504 eVAu     10.65099     15.29938     13.24033         0.008540     -0.018505     -0.026304
Au     12.20798     13.82962     11.08925        -0.033836      0.003967      0.058959
Au     13.06159     14.09330     13.94332         0.014864      0.006099      0.044038
Au     13.54649     11.60444     12.23597        -0.005739      0.015844     -0.018754
Au     13.62813     15.16673      9.19237        -0.007171      0.030133      0.017356
Au     10.87488     12.40390     13.00002         0.046317      0.015971      0.016402
Au     18.31428     12.72736     14.47907         0.005209     -0.006498     -0.004549
Au     14.99176     10.37083     14.25678        -0.015152     -0.002627     -0.005852
Au     17.59582     13.92525     11.02966         0.020955      0.018614      0.007150
Au     17.08845     15.39122     13.49307        -0.027019      0.001145      0.035285
Au     19.65458     14.51296     12.80379         0.030944      0.029218      0.005797
Au     15.03420     12.98639     10.27572         0.008842     -0.022444      0.037316
Au     14.69749     15.13871     11.96703        -0.012784      0.001782      0.007919
Au     16.37646     12.00456     12.57081        -0.017557     -0.001639     -0.006215
Au     11.82542     17.78008     13.77032         0.000443      0.013707     -0.010609
Au     12.92873     19.23037     11.69663        -0.016136      0.037450      0.020196
Au     12.05704     16.62178     11.20150        -0.001805      0.007024     -0.018752
Au     14.16158     17.81888      9.71755         0.008285     -0.021401     -0.006583
Au     18.44763     16.65937     11.23710         0.005375      0.000913     -0.010995
Au     16.27960     15.88658      9.61948         0.001047     -0.023342      0.008917
Au     15.45440     20.45158     11.96422         0.009862      0.004474     -0.008293
Au     13.71555     19.92411     14.22444        -0.006991     -0.029618     -0.019461
Au     16.43308     20.69266     14.57609         0.039744     -0.000720     -0.018635
Au     18.03331     19.22775     12.43253         0.009289     -0.009001      0.030430
Au     16.78554     18.66031     10.04093         0.028333     -0.034999     -0.002123
Au     15.42809     17.73412     12.34816        -0.004115     -0.008002     -0.019830
Au     19.57623     17.14062     13.78961         0.020076      0.040333      0.011362
Au     14.47886     16.41538     14.55078        -0.015441     -0.022798      0.000492
Au     13.00017     11.87183     18.98912         0.010516     -0.007933      0.018781
Au     10.49410     13.56708     15.46917        -0.044234      0.007894     -0.002473
Au     12.29777     10.68343     14.61998         0.029271     -0.007686      0.038892
Au     13.32849     12.74675     16.31034         0.033690      0.068664     -0.082085
Au     11.45682     14.12141     18.01153         0.012738      0.023187      0.014660
Au     14.19769     10.23286     16.96826         0.018585     -0.035510      0.003716
Au     13.87530     14.40901     19.62641         0.008311     -0.022647     -0.001173
Au     11.09526     16.19874     15.94994         0.033324     -0.000227      0.039612
Au     11.06465     11.31613     17.04875        -0.060772      0.002065      0.013328
Au     14.31128     15.17408     16.97994        -0.023951     -0.047816     -0.012132
Au     19.30556     15.39381     18.33797        -0.034321      0.018559      0.005205
Au     15.67884     12.33649     18.43977        -0.018589     -0.012743     -0.019540
Au     19.72459     14.89986     15.58820         0.009998      0.003382     -0.033352
Au     16.67595     14.81868     19.24204        -0.012931     -0.014717     -0.024176
Au     15.63373     13.47487     14.97360        -0.037370      0.020733     -0.001579
Au     17.04056     15.61019     16.41759        -0.028603      0.024602      0.002837
Au     16.78227     11.07694     16.16865         0.032754      0.022401     -0.029077
Au     18.15068     13.12145     17.32811        -0.016254      0.009049     -0.012856
Au     12.41227     18.63182     16.31100        -0.005899     -0.009403      0.015378
Au     13.25098     19.21212     18.87701        -0.008755      0.010365     -0.038164
Au     12.32807     16.67697     18.43374         0.034015     -0.031280     -0.017077
Au     19.32434     17.54946     16.60788        -0.009073      0.041716     -0.024801
Au     15.16453     17.78212     17.00568        -0.018721     -0.016300     -0.007595
Au     16.90410     17.90590     14.78808         0.014601     -0.010528      0.033485
Au     17.46230     19.73214     17.08885         0.019248      0.010050     -0.044439
Au     14.90193     16.97582     19.74855        -0.005192     -0.007222      0.000633
Au     17.62021     17.49960     18.91710         0.006350     -0.043572      0.008777
Au     19.13586     19.73745     14.90009        -0.010388     -0.029623      0.013308
Au     15.91775     19.61240     19.34574        -0.024742      0.012089     -0.006361
Au     14.66112     20.50256     16.76628         0.002015     -0.002626      0.023604
