58
# total energy = -161.06523729 eVAu     10.36949     15.02693     13.97835         0.013331     -0.035947     -0.033157
Au     12.14951     14.73175     11.81599         0.011280     -0.030474     -0.004536
Au     12.55984     11.93226     11.30990         0.051837      0.037441      0.001896
Au     13.53643     10.40394     13.37972         0.056003      0.048158      0.009800
Au     14.44597     13.13374     13.98468         0.017385      0.037878      0.029133
Au     11.49518     12.49363     13.77494         0.113489      0.044421     -0.015142
Au     13.09260     15.52527     14.48125        -0.032216     -0.040184      0.010039
Au     17.48739     12.89206     13.55746         0.026003      0.020597     -0.039570
Au     18.75588     15.22690     12.45280         0.024554     -0.013087     -0.044873
Au     15.07409     15.35307     12.44471        -0.029153     -0.038864      0.067805
Au     17.01795     13.77346     10.87314        -0.009771      0.072564      0.079512
Au     14.87861     16.28598      9.79438         0.017055      0.104963     -0.019962
Au     14.29574     13.69806     10.23881         0.011128     -0.086691      0.054337
Au     15.54391     11.65831     11.89501        -0.008662      0.060979      0.036595
Au     11.33721     17.66379     13.81644        -0.047500      0.040540      0.020914
Au     13.16972     19.76432     13.62579        -0.002002     -0.043414     -0.076302
Au     13.04164     17.38917     11.66852        -0.000485      0.007069      0.008255
Au     14.46986     19.74868     11.19305        -0.021175      0.008925      0.005310
Au     17.74583     16.30393     10.03796        -0.008811      0.031813      0.064502
Au     17.30679     20.24672     11.11395         0.061036      0.002903      0.096167
Au     14.93130     17.71502     14.41684        -0.007025     -0.021458      0.006452
Au     15.88025     20.64753     13.51898        -0.002726     -0.056167      0.005096
Au     19.17572     17.99692     11.83319        -0.028663     -0.073633      0.023987
Au     16.17836     18.61490      9.20596         0.004312     -0.058147     -0.003192
Au     18.73114     20.26553     13.42681         0.011804     -0.084517     -0.046008
Au     17.77811     17.57706     14.41836        -0.008935     -0.095390     -0.025880
Au     20.42932     16.79568     14.07988        -0.014535      0.010534      0.006581
Au     16.30969     17.76133     11.99510         0.030193      0.070868      0.049678
Au     11.19648     13.57362     16.30036         0.035078      0.032924     -0.057719
Au     13.07142     11.33304     15.89292        -0.023736     -0.021658     -0.049237
Au     12.08311     15.02663     18.54089         0.025258     -0.059379      0.072021
Au     12.58415     12.27134     18.38424         0.001647      0.003837      0.006743
Au     16.46122     15.40862     17.73019         0.038670     -0.000662      0.040612
Au     14.43507     13.87547     19.60742        -0.035123      0.017405      0.000260
Au     14.25178     13.98008     16.65143        -0.051902     -0.043750      0.033562
Au     16.43085     15.48863     20.61205         0.034761     -0.042783     -0.029307
Au     17.05826     13.05305     19.17733        -0.000815      0.005878     -0.038383
Au     15.30024     11.52389     17.63212        -0.010486      0.023810     -0.006791
Au     15.88052     10.92730     14.88594        -0.015502      0.001844     -0.009844
Au     16.25568     15.24669     14.96866        -0.023491      0.008402      0.030420
Au     19.18313     14.20008     17.85737         0.063797      0.024123     -0.042291
Au     17.62649     12.46321     16.37113        -0.047680      0.088145     -0.035429
Au     19.13381     14.52772     15.11863         0.003619      0.006169      0.016757
Au     12.28561     18.94595     16.14233        -0.003917      0.081204     -0.013314
Au     13.93282     16.72622     16.94352        -0.017929      0.017021     -0.015270
Au     14.06483     19.16248     18.49360        -0.008567      0.006641      0.009168
Au     13.98333     16.69316     19.92328         0.034582     -0.008733      0.011918
Au     10.94956     16.42214     16.31678        -0.060119     -0.011985      0.040030
Au     11.69444     17.77113     18.62760        -0.005662      0.035171     -0.014673
Au     18.75302     18.98573     18.11938        -0.055501     -0.008762     -0.059579
Au     16.42475     18.03150     16.83588         0.008928      0.002625     -0.000290
Au     17.50141     20.59008     15.85175         0.016417     -0.019201      0.029966
Au     18.62346     16.49145     19.30393         0.031121      0.025858     -0.021445
Au     16.40214     18.16666     19.81862        -0.011732      0.028206     -0.026178
Au     19.94590     16.67290     16.84834        -0.098159     -0.044037     -0.065490
Au     16.41222     20.56811     18.38482         0.011122     -0.024821     -0.031122
Au     14.69741     20.34895     16.00634        -0.019708      0.012040     -0.004749
Au     19.94297     19.15562     15.61668        -0.042718     -0.057211     -0.037781
