58
# total energy = -156.39793335 eVAu     10.54305     14.99991     13.94937        -0.979934      0.044708     -0.258933
Au     12.43815     14.59536     12.04416        -0.663464      0.591243     -0.905639
Au     12.72549     11.90121     11.44080        -0.888049     -0.495884     -1.244434
Au     13.61817     10.35471     13.40049        -0.190220     -1.336015      0.109639
Au     14.07330     13.03050     13.82550         0.464317      0.828694      0.414336
Au     11.44365     12.39021     13.72515        -1.110630     -0.434529      0.145725
Au     13.16070     15.54546     14.54556         0.881746     -0.215053      0.114943
Au     16.95642     13.19196     13.60491         0.777922     -0.550386      0.091409
Au     18.05745     15.62415     12.73317         0.515034     -0.477624     -0.195172
Au     15.20154     15.20889     12.54702        -0.178556      0.311396      0.750903
Au     16.92822     13.93500     10.85148         0.892912     -0.594099     -0.486430
Au     15.07155     16.21941      9.95997        -0.873233     -0.317300     -0.863720
Au     14.32647     13.66563     10.28445        -0.435542      0.178524     -1.046692
Au     15.45177     11.73555     11.85978         0.970666     -0.751374     -0.368887
Au     11.49417     17.60298     13.82208        -0.872552      0.394787     -0.425626
Au     13.22991     19.75404     13.50903        -0.577145      0.857287     -0.036531
Au     13.44717     17.33154     11.98335        -0.740197     -0.244079     -0.731390
Au     14.61582     19.73130     11.15097        -0.931470      0.792586     -0.443201
Au     17.78277     16.42656     10.08282         1.058723     -0.532010     -0.670096
Au     17.39487     20.14353     11.13084         0.505311      1.134635     -0.332547
Au     14.77869     17.80065     14.46483         0.730607     -0.700154      0.191254
Au     16.02588     20.20347     13.49565        -0.191413      1.147350      0.296820
Au     19.07094     18.08373     11.87631         1.061302     -0.160318     -0.587679
Au     16.25802     18.54378      9.33744        -0.111440      0.439579     -1.569192
Au     18.84969     20.30358     13.41852         0.616758      0.990984     -0.112529
Au     17.67120     17.99844     14.35761        -0.809621     -0.488070      0.013841
Au     20.13447     16.81005     14.09886         1.079036     -0.516187     -0.264605
Au     16.26366     17.74896     11.98395        -0.140328     -0.457794      0.708529
Au     11.59737     13.66062     16.11225        -1.023335     -0.321516      0.458398
Au     13.08456     11.32287     15.86148        -0.700777     -0.861430      0.337819
Au     12.24738     14.97015     18.45810        -0.683905     -0.298681      0.589755
Au     12.64626     12.29418     18.31620        -0.885009     -0.521567      0.629180
Au     16.45944     15.46650     17.93610        -0.407525      0.350550     -0.881705
Au     14.59596     13.83705     19.40751        -0.502183     -0.200873      0.971086
Au     14.36016     13.82748     16.57542         0.236652      0.882726     -0.653293
Au     16.55199     15.39408     20.62491         0.062610      0.012070      1.218377
Au     17.15175     13.08021     19.20264         0.389162     -0.931660      0.620979
Au     15.21672     11.56101     17.79441         0.538916     -1.024529      0.315419
Au     15.67383     11.15859     15.02442         0.962037     -0.580789      0.045652
Au     16.35918     15.51807     15.13767        -0.657475      0.446303      0.085139
Au     19.09875     14.27007     17.80353         1.197108     -0.501600     -0.034158
Au     17.07684     13.06194     16.42683         0.534801     -0.879620     -0.465181
Au     19.01955     14.44158     15.02802         0.633201     -0.536933     -0.138165
Au     12.53028     18.77856     16.05723        -0.626685      0.852965      0.108696
Au     13.97184     16.59249     16.98660         0.695875     -0.419670     -0.658980
Au     14.15871     19.04970     18.39186        -0.299152      0.622464      0.640323
Au     14.19570     16.55418     19.73193        -0.355517      0.213881      1.017868
Au     11.11767     16.38882     16.28289        -0.954678      0.043097      0.229108
Au     11.88699     17.65146     18.55728        -0.795970      0.465639      0.542432
Au     18.66363     18.98604     18.07392         0.979256      0.186765      0.553876
Au     16.34490     18.09669     16.83228        -0.187394     -0.860479     -0.535332
Au     17.59980     20.44626     15.85398        -0.054528      1.153286     -0.081564
Au     18.68139     16.46634     19.31847         0.900860      0.226506      0.613635
Au     16.49913     18.01740     19.59882        -0.202352      0.595926      1.153074
Au     18.80184     16.67727     16.56516         0.756090     -0.049313      0.158281
Au     16.42008     20.48880     18.28605        -0.191863      1.073817      0.666620
Au     14.80923     20.27292     15.95628        -0.328134      0.942469     -0.132119
Au     19.91952     19.04550     15.60918         1.109372      0.479296      0.330681
