58
# total energy = -160.92346272 eVAu     10.79324     15.13311     13.16938        -0.098134      0.013637     -0.020369
Au     12.22379     13.81923     10.95614        -0.019338      0.006916      0.038466
Au     13.20779     13.86617     13.82825        -0.090545      0.015205     -0.041437
Au     13.44437     11.51565     12.09732         0.005895      0.004636      0.017288
Au     13.65318     15.27019      9.11493         0.005344     -0.062824     -0.005732
Au     10.84385     12.33596     12.81947         0.028135     -0.002560      0.008791
Au     18.22458     12.76890     14.46441         0.049471     -0.064757      0.012695
Au     14.78886     10.61991     14.31657         0.059542     -0.037349     -0.020996
Au     17.49069     14.02054     10.90051         0.044996     -0.035528      0.078284
Au     17.01314     15.40112     13.50051         0.059080     -0.022409     -0.008139
Au     19.52445     14.55826     12.74773         0.040643      0.011556      0.004767
Au     14.95073     12.96744     10.14463         0.011527     -0.067036     -0.016152
Au     14.73155     15.08921     11.85449        -0.050012      0.008067     -0.007471
Au     16.18612     12.24893     12.59212         0.028371     -0.047202      0.013975
Au     11.92447     17.58306     13.74246        -0.023979      0.073898     -0.031489
Au     12.97341     19.17398     11.76848        -0.037037      0.082467     -0.006699
Au     12.04371     16.61513     11.10334         0.060813     -0.014753      0.005551
Au     14.17812     17.90937      9.68650        -0.003427      0.003891     -0.005473
Au     18.44784     16.72343     11.19948        -0.038442     -0.053318      0.044856
Au     16.29852     16.03362      9.49419        -0.019584     -0.037042     -0.000953
Au     15.50322     20.38753     12.02567         0.001459      0.068760     -0.022321
Au     13.91802     19.59225     14.32516        -0.029100      0.112821      0.017670
Au     16.53838     20.73944     14.60942         0.047226      0.000260     -0.009499
Au     18.11791     19.29018     12.44129        -0.062825     -0.007570      0.011703
Au     16.81107     18.73909     10.06426        -0.002432     -0.004839      0.002276
Au     15.46256     17.65977     12.34150        -0.019231      0.036551     -0.045632
Au     19.57406     17.19442     13.77045         0.028603     -0.038522     -0.002166
Au     14.48600     16.26247     14.53801        -0.000805      0.062213     -0.032153
Au     12.97865     11.91155     19.16223        -0.013301     -0.042012      0.022009
Au     10.49945     13.29919     15.40150        -0.032552      0.010543      0.006870
Au     12.09197     10.77225     14.71729         0.096673      0.022750     -0.061263
Au     13.21134     12.89056     16.39801         0.021937     -0.026643     -0.007847
Au     11.31326     14.02920     18.12879         0.018861     -0.008810     -0.038459
Au     14.07239     10.36071     17.04299        -0.004709     -0.111749     -0.030719
Au     13.88351     14.42507     19.72623        -0.006102      0.022216      0.013654
Au     11.56903     15.78556     15.86476        -0.127973      0.080366      0.056071
Au     11.07949     11.24946     17.25992        -0.018132     -0.005954     -0.007185
Au     14.37446     15.24444     17.10867        -0.008521     -0.069904      0.002122
Au     19.25362     15.42917     18.32936         0.062884     -0.024727      0.002992
Au     15.62597     12.35824     18.50543         0.002942      0.012993     -0.039866
Au     19.64391     14.96914     15.54564         0.030348     -0.061416     -0.017630
Au     16.65752     14.84946     19.27077         0.033473     -0.023521     -0.002400
Au     15.63534     13.50684     15.19381        -0.029121     -0.006277     -0.034580
Au     17.05522     15.77012     16.46480        -0.046812     -0.034725      0.030400
Au     16.68839     11.06933     16.20067         0.114427      0.051871      0.041440
Au     18.03341     13.19534     17.29749         0.041531     -0.054342     -0.028099
Au     12.37614     18.40959     16.30885         0.017324      0.087468      0.026041
Au     13.27200     19.14274     18.77648         0.006238      0.055742      0.019358
Au     12.29892     16.56621     18.52545        -0.022543      0.046922      0.019944
Au     19.38034     17.60997     16.62132        -0.016338      0.004894      0.011477
Au     15.16889     17.86877     16.90772         0.026542     -0.019412      0.076775
Au     16.92307     17.95728     14.75100         0.053776      0.051980     -0.011192
Au     17.59406     19.80255     17.15170        -0.067375     -0.030894     -0.042459
Au     14.92526     17.01284     19.71731        -0.017034     -0.008720      0.021368
Au     17.64658     17.56198     18.95804        -0.004546     -0.020384     -0.026624
Au     19.21553     19.78080     14.92020        -0.033675      0.005675      0.002228
Au     15.91975     19.65704     19.33859         0.007604      0.029035     -0.007929
Au     14.78425     20.56644     16.79423        -0.062040      0.061869      0.023865
