58
# total energy = -161.38582385 eVAu     10.10904     13.79287     12.74250         0.006255     -0.015008     -0.011313
Au     11.69353     14.08499     10.40913        -0.007840     -0.002864     -0.005672
Au     12.01864     11.75651     11.95864        -0.006776     -0.001393      0.006943
Au     12.47794     15.71810     12.85187         0.005103     -0.002784      0.003271
Au     16.85698     12.62978     12.32272        -0.000516      0.028597     -0.000047
Au     14.18115     13.68968     11.89334        -0.031233      0.007418     -0.006254
Au     16.69572     14.69987     10.31897         0.002379     -0.004134      0.019582
Au     15.41034     12.29316      9.81360         0.007198      0.003626      0.004446
Au     18.23194     15.02204     12.71144        -0.006610      0.017829      0.008157
Au     14.08777     14.69803      9.17566        -0.000840     -0.001689     -0.001486
Au     14.69354     10.85770     12.07486         0.003084      0.007522      0.022784
Au     10.03658     16.17658     11.28449        -0.000108     -0.005148     -0.011723
Au      9.78064     16.31964     14.02921         0.017788      0.014188      0.043650
Au     11.30159     18.30669     12.59801         0.011393      0.009426      0.001380
Au     12.96943     20.02908     14.02555        -0.034666      0.026556      0.008889
Au     12.50487     16.85551     10.17527        -0.009605     -0.005850     -0.019241
Au     13.56358     19.18082     11.25266         0.017187     -0.005260      0.002597
Au     17.74980     17.14845     10.90679         0.016641      0.020751      0.014138
Au     18.69392     19.62617     11.65290        -0.010347     -0.006540     -0.020171
Au     15.07889     21.10227     12.60889         0.005760     -0.012056      0.009977
Au     19.27303     17.49321     13.40768        -0.001876     -0.003707      0.029904
Au     15.17628     17.23473      9.50153        -0.016065     -0.013605     -0.006685
Au     16.20419     19.58363     10.48582         0.006055     -0.009507      0.007976
Au     17.62598     21.22118     13.72732        -0.024366     -0.013992      0.022276
Au     16.40138     18.65046     13.17766        -0.006504      0.007012      0.012624
Au     15.22119     16.33576     12.14258        -0.008119     -0.008508      0.047579
Au     20.20945     20.09972     13.90331         0.006224      0.004911     -0.006522
Au     12.30699     15.67650     15.72411         0.017250      0.003493      0.006958
Au     13.20293     12.58543     19.06292         0.001479      0.020467     -0.028032
Au      9.93927     13.92066     15.60300        -0.002492      0.009726     -0.001419
Au     13.15263     10.47983     14.34707        -0.014202      0.020166      0.018779
Au     12.75169     13.27643     14.35229        -0.021541      0.007060     -0.031736
Au     10.51728     11.50173     14.31046        -0.012298     -0.007175     -0.007696
Au     11.25769     14.48370     18.18762         0.012354     -0.008943     -0.010126
Au     11.64342     12.02721     16.79602         0.027721     -0.015651      0.014178
Au     14.25033     13.72406     16.75880        -0.017087     -0.029204      0.038799
Au     19.37205     15.49593     15.30367         0.000296     -0.001327     -0.007555
Au     15.82746     13.67699     19.16044        -0.019417     -0.003168      0.001072
Au     14.19155     10.89199     16.91246        -0.001781     -0.000859      0.010294
Au     13.61176     15.38938     19.44783        -0.006367     -0.020368      0.002120
Au     15.85002     11.24271     14.59368        -0.009946      0.009971     -0.002869
Au     15.15972     14.72992     14.39598        -0.001937      0.021570     -0.036351
Au     17.93727     14.47721     17.48812        -0.008456      0.024182     -0.013445
Au     16.69379     12.05471     17.09855         0.002246     -0.028428      0.015308
Au     17.73960     13.29123     14.87032         0.012641     -0.000920     -0.009422
Au     11.24183     18.34463     15.44388        -0.002126     -0.004118     -0.007661
Au      9.68695     16.40815     16.79710        -0.006250     -0.016152     -0.034592
Au     11.91897     17.29033     18.13813         0.011988      0.001540      0.000261
Au     18.22249     19.29425     15.68081         0.011594      0.019744      0.002488
Au     14.76053     16.44363     16.95252         0.015017     -0.019517     -0.002961
Au     16.88156     16.74350     15.11502         0.015862      0.009168     -0.008910
Au     15.50219     20.40982     15.36458         0.002394      0.016285     -0.019898
Au     18.53964     17.17666     17.42298        -0.001301     -0.029420     -0.009461
Au     14.10627     17.51749     14.43901         0.023230     -0.011071     -0.008429
Au     14.28032     18.10386     19.29717         0.002041     -0.011260     -0.012877
Au     13.47991     19.26648     16.82537         0.011862     -0.007416     -0.013883
Au     16.50774     16.36191     19.13979         0.013972      0.012109      0.012811
Au     16.27844     18.89108     17.58980         0.003658      0.003728     -0.032802
