58
# total energy = -161.03730085 eVAu     10.09613     13.74199     12.72283         0.052746      0.049984      0.042274
Au     11.76557     14.03226     10.42417        -0.035974      0.034641     -0.027024
Au     11.98096     11.69250     11.96577        -0.020344      0.018646      0.019114
Au     12.49357     15.66287     12.85233         0.003970     -0.059351      0.002012
Au     16.90556     12.59937     12.27708        -0.054050     -0.037224     -0.133814
Au     14.19691     13.59438     11.99359        -0.001588      0.032106     -0.147790
Au     16.80676     14.67198     10.26936        -0.053085     -0.112517     -0.057113
Au     15.43450     12.27096      9.84760        -0.024699      0.054272     -0.010048
Au     18.10587     15.08423     12.71590         0.241789      0.111917      0.097325
Au     14.18436     14.73846      9.29171        -0.073829     -0.071527     -0.071713
Au     14.65470     10.82186     12.09713         0.052569     -0.022184      0.017845
Au     10.11850     16.14268     11.31497        -0.089234      0.018419     -0.060008
Au      9.81468     16.28368     14.05107         0.010334      0.004943     -0.088865
Au     11.38120     18.27363     12.65447        -0.023806      0.015226     -0.104634
Au     12.98520     20.03401     14.09406        -0.046261      0.318431     -0.036050
Au     12.54455     16.86168     10.19231        -0.103190      0.010007      0.040384
Au     13.59544     19.21438     11.26210         0.028612     -0.014617      0.009655
Au     17.72682     17.16529     10.81846         0.084583      0.079847      0.051474
Au     18.75878     19.60509     11.56178        -0.069368      0.072545      0.041843
Au     15.11647     21.08116     12.67708        -0.057746      0.076320     -0.089214
Au     19.21984     17.55985     13.39602        -0.059524     -0.173453      0.051077
Au     15.16565     17.33032      9.48558         0.036447     -0.003940     -0.049660
Au     16.23986     19.68893     10.42413        -0.034130     -0.007011      0.058413
Au     17.68104     21.08579     13.73679         0.007081      0.014029     -0.037042
Au     16.35947     18.59010     13.01463         0.168775      0.114589      0.020836
Au     15.20877     16.24061     12.05769         0.009052      0.023300     -0.113542
Au     20.28735     20.09382     13.83892        -0.085045      0.006191      0.019527
Au     12.31540     15.68556     15.70701         0.126690     -0.098315      0.004792
Au     13.18791     12.55196     19.04388         0.024100      0.010240      0.090737
Au      9.96981     13.88582     15.62193        -0.025000     -0.101300     -0.087639
Au     13.08997     10.44885     14.38923         0.014243     -0.023642     -0.014441
Au     12.76275     13.23325     14.40826        -0.073131      0.036942      0.007683
Au     10.47084     11.47723     14.31800        -0.005174     -0.001641     -0.005987
Au     11.29755     14.43430     18.18422        -0.044286      0.047545     -0.010634
Au     11.63990     11.94991     16.80185        -0.054956      0.030539     -0.045002
Au     14.32377     13.71883     16.76704        -0.009560      0.071357      0.002407
Au     19.27373     15.57457     15.30445         0.130189     -0.033837     -0.167207
Au     15.80115     13.60573     19.20067         0.025219     -0.012574      0.063747
Au     14.20860     10.89802     16.94125        -0.003266     -0.066736      0.008615
Au     13.61515     15.35963     19.49747         0.027925      0.010288     -0.017968
Au     15.64850     11.60626     14.60136        -0.056718     -0.297323     -0.071814
Au     15.08931     14.87018     14.40938         0.084725     -0.125972      0.149687
Au     17.39788     14.66192     17.14534         0.192845     -0.046454      0.225249
Au     16.75229     12.00301     17.11996         0.009377     -0.022400     -0.029608
Au     17.81019     13.24363     14.78749         0.062384      0.122010      0.103392
Au     11.26407     18.34562     15.49101        -0.065918     -0.023283      0.036157
Au      9.75533     16.35560     16.78723        -0.105070      0.147575      0.205923
Au     11.95645     17.24890     18.19243        -0.273070     -0.021626     -0.157915
Au     18.36086     19.32614     15.78064        -0.056121     -0.046824     -0.049892
Au     14.71075     16.49303     16.93931         0.022618     -0.080569     -0.080790
Au     16.84049     16.91541     15.12543         0.006522     -0.049691      0.045807
Au     15.57293     20.35369     15.38567        -0.047508      0.001921     -0.023994
Au     18.51119     17.16704     17.49602         0.066769      0.037205      0.011341
Au     14.10537     17.57615     14.33933        -0.027887     -0.224519      0.146756
Au     14.27584     18.10621     19.28330         0.063139      0.103499      0.244103
Au     13.49603     19.27740     16.85982         0.031014      0.065662     -0.082007
Au     16.41776     16.34323     19.17835         0.072731     -0.014685      0.082117
Au     16.30939     18.90506     17.62707         0.023087      0.053016     -0.028879
