58
# total energy = -160.74503830 eVAu     10.82688     15.09625     13.14465        -0.042707     -0.001041      0.094282
Au     12.24556     13.78260     10.93410        -0.061963      0.040409      0.016796
Au     13.24281     13.75396     13.80455        -0.021672      0.123856      0.113741
Au     13.38645     11.44465     12.06131         0.150601     -0.010466      0.022587
Au     13.65230     15.27792      9.10316         0.027634      0.029737     -0.012449
Au     10.82734     12.31630     12.78029        -0.064431      0.028957      0.017166
Au     18.20974     12.73445     14.42243         0.009788      0.051947      0.003957
Au     14.71364     10.73330     14.38173         0.043503     -0.050593     -0.084977
Au     17.49612     14.02992     10.88212        -0.056507      0.003665      0.078979
Au     17.03546     15.39804     13.52805         0.114976     -0.082618     -0.072192
Au     19.53975     14.57091     12.71939        -0.062504      0.000301      0.050291
Au     14.93344     12.97104     10.11594         0.066206     -0.037378      0.043706
Au     14.71986     15.09553     11.86676         0.019191     -0.008056     -0.030401
Au     16.06510     12.37555     12.62638         0.084545     -0.066591     -0.017289
Au     11.95717     17.53706     13.74237         0.070049      0.091933      0.007864
Au     12.99952     19.19954     11.79032        -0.033071     -0.060309      0.061608
Au     12.11597     16.59031     11.12433         0.005399      0.071077     -0.024654
Au     14.16923     17.95433      9.66680        -0.009328     -0.059195      0.010662
Au     18.40268     16.75680     11.23069        -0.000768     -0.048147      0.005876
Au     16.27594     16.07309      9.52035         0.015975     -0.071671     -0.002939
Au     15.51506     20.43689     12.00701        -0.045563     -0.017374      0.020827
Au     14.07643     19.41546     14.34754        -0.128659      0.133308     -0.008974
Au     16.58774     20.80021     14.58738        -0.091856     -0.020727      0.024007
Au     18.11298     19.35987     12.42855         0.019028     -0.093619      0.017194
Au     16.81030     18.79553     10.03649         0.017693     -0.035204      0.006677
Au     15.52210     17.67088     12.30218        -0.076316     -0.008698      0.011328
Au     19.58312     17.21051     13.76282        -0.026493     -0.029995      0.034114
Au     14.55328     16.21654     14.54130        -0.214889      0.058140      0.088245
Au     12.95749     11.88660     19.21294         0.052972     -0.012951     -0.009439
Au     10.46953     13.25476     15.38129         0.082551      0.138463      0.018763
Au     12.00194     10.74957     14.70628         0.132627      0.012959      0.022263
Au     13.20405     12.87630     16.43587         0.004171      0.004635     -0.114962
Au     11.31573     14.00344     18.15950        -0.018679      0.074724     -0.037748
Au     14.02008     10.30664     17.07723         0.049031      0.058521     -0.048239
Au     13.83330     14.42564     19.80362         0.045739     -0.004699     -0.056592
Au     11.75869     15.67674     15.84988        -0.162743      0.025295     -0.022949
Au     11.07109     11.25402     17.27688        -0.015587     -0.047890      0.003937
Au     14.40393     15.23915     17.20294        -0.078367      0.034734     -0.097528
Au     19.23964     15.42550     18.29112         0.066357      0.012472      0.103296
Au     15.56596     12.41664     18.41528         0.030248     -0.027361      0.032056
Au     19.64633     14.94054     15.51660        -0.027612      0.049106     -0.034435
Au     16.64337     14.84767     19.27487         0.015511      0.014408     -0.025526
Au     15.65330     13.51093     15.30190         0.011930      0.004636     -0.138719
Au     17.05405     15.81357     16.47293         0.047752     -0.102233     -0.023377
Au     16.70467     11.03536     16.20506         0.019055      0.061412      0.049384
Au     18.05790     13.19635     17.25336        -0.104532     -0.096667      0.001128
Au     12.39228     18.36979     16.31733         0.047747      0.013660      0.006638
Au     13.24987     19.17202     18.78065        -0.045543     -0.049956     -0.044965
Au     12.24708     16.57309     18.56617         0.063694      0.014834     -0.075618
Au     19.37964     17.61902     16.60341        -0.017055      0.024772     -0.027975
Au     15.20457     17.88889     16.94736        -0.106378      0.051596     -0.038275
Au     16.93694     18.00057     14.73504         0.000778     -0.013210      0.011587
Au     17.55591     19.83234     17.11226         0.056581     -0.051921     -0.000956
Au     14.87454     17.01489     19.73492         0.070119     -0.011369     -0.010626
Au     17.62235     17.56349     18.91665        -0.013070     -0.013334      0.029995
Au     19.23273     19.80555     14.91155         0.023290     -0.033277      0.013111
Au     15.89904     19.66466     19.30266         0.044536      0.012021      0.077583
Au     14.75339     20.60905     16.78136         0.017017     -0.075024     -0.037844
