58
# total energy = -160.76304474 eVAu     10.46221     14.99194     13.93596        -0.111729     -0.045204      0.020522
Au     12.20508     14.70323     11.79033         0.020415     -0.049034      0.025090
Au     12.58892     11.87273     11.32459         0.004115      0.073870      0.034083
Au     13.55611     10.29196     13.38126        -0.002437      0.123694      0.018913
Au     14.23865     13.08128     13.86535        -0.007436     -0.106097      0.042821
Au     11.42032     12.39287     13.76978         0.071626      0.015665     -0.007763
Au     13.13950     15.53014     14.48589        -0.050512     -0.068728      0.037156
Au     17.30948     12.93959     13.55474         0.098643      0.030681      0.034829
Au     18.39806     15.38951     12.58459         0.136957     -0.021340     -0.071345
Au     15.18840     15.28698     12.55826        -0.030563     -0.003638     -0.251913
Au     16.99043     13.80445     10.83077         0.014999     -0.007809     -0.040514
Au     14.97181     16.22955      9.82043        -0.062571      0.110048     -0.011897
Au     14.28756     13.67523     10.23199        -0.060788     -0.053454      0.037216
Au     15.52115     11.64425     11.85211        -0.039874     -0.049406      0.008887
Au     11.39446     17.64358     13.84043        -0.065814      0.088693     -0.069673
Au     13.19261     19.78095     13.58812        -0.095006      0.152045     -0.046830
Au     13.12512     17.34121     11.69623         0.038756      0.046437     -0.022849
Au     14.52305     19.76133     11.17683        -0.083037      0.026318     -0.023303
Au     17.80313     16.35344     10.00056         0.054994     -0.041421      0.014758
Au     17.38682     20.20302     11.14671        -0.019260      0.026692     -0.039948
Au     14.87711     17.78260     14.39132         0.120441     -0.053432      0.085748
Au     15.93691     20.63052     13.51777        -0.019625     -0.044363      0.028976
Au     19.21485     18.03748     11.81519        -0.078288      0.018307     -0.017299
Au     16.22711     18.62004      9.20278        -0.053560     -0.048607     -0.041685
Au     18.84907     20.37786     13.41301        -0.038521     -0.042499      0.000449
Au     17.72191     17.83759     14.34106        -0.006496     -0.085117      0.026633
Au     20.32227     16.77534     14.06063         0.093692     -0.008548      0.012777
Au     16.26867     17.72636     11.95305         0.103589      0.045945      0.035542
Au     11.22313     13.54730     16.29389        -0.007745      0.026818     -0.118969
Au     13.00234     11.25377     15.89164         0.033884      0.052278     -0.039935
Au     12.13997     14.97715     18.55663        -0.049554      0.028533     -0.003842
Au     12.58510     12.26936     18.36683        -0.009111     -0.078363      0.058920
Au     16.49311     15.42857     17.81835        -0.027757     -0.000043      0.005480
Au     14.47176     13.84501     19.61429         0.001962     -0.007376     -0.005092
Au     14.38777     13.91822     16.54862        -0.071053      0.055313      0.044082
Au     16.47543     15.46586     20.68193         0.011038     -0.006245      0.002679
Au     17.10655     13.08437     19.18602        -0.005350     -0.091401      0.072308
Au     15.24110     11.53940     17.71997         0.059784     -0.072312     -0.000619
Au     15.77217     11.01134     14.95110         0.022463     -0.097118     -0.041467
Au     16.31175     15.43917     15.06600         0.039314     -0.085662      0.005620
Au     19.26564     14.17254     17.85784        -0.023499     -0.009450      0.009829
Au     17.46602     12.61903     16.37994         0.030277     -0.038345      0.025759
Au     19.12706     14.42413     15.08156        -0.013326      0.007858     -0.032760
Au     12.36248     18.95456     16.13087        -0.074766     -0.039428     -0.020238
Au     13.97285     16.65966     16.94710         0.003126     -0.017575      0.003146
Au     14.12904     19.12374     18.50415        -0.062102      0.033456      0.033542
Au     14.05489     16.65488     19.94156        -0.038939      0.002909     -0.012237
Au     10.97163     16.36756     16.30939        -0.028367      0.028472      0.049888
Au     11.80350     17.70983     18.56422        -0.154741      0.070855      0.127315
Au     18.71340     18.99851     18.13032         0.057440      0.018758      0.018112
Au     16.41995     18.01984     16.83831         0.019066      0.033213     -0.041364
Au     17.54680     20.62068     15.84879        -0.029738     -0.017993      0.000634
Au     18.64821     16.48945     19.35687        -0.006040     -0.008725      0.041819
Au     16.42944     18.18702     19.89416         0.027917     -0.024361     -0.067677
Au     19.40515     16.67033     16.69423         0.243041      0.071501      0.066374
Au     16.41726     20.56841     18.37013         0.033506      0.079020      0.043900
Au     14.73753     20.37129     16.01322         0.027610      0.035661     -0.073743
Au     19.95185     19.16136     15.60784         0.058947      0.020053      0.029158
