58
# total energy = -161.39146217 eVAu     10.10552     13.79103     12.73730         0.003729     -0.009760      0.011016
Au     11.68633     14.08076     10.40387        -0.001769      0.005544     -0.011412
Au     12.01558     11.75252     11.95522        -0.004484     -0.002827      0.013218
Au     12.47399     15.73215     12.84721         0.023880      0.005262      0.002659
Au     16.85100     12.64339     12.33292        -0.012531      0.006533      0.010587
Au     14.17037     13.69688     11.88196        -0.019986      0.029955      0.024911
Au     16.68298     14.70783     10.33502         0.002328      0.004475     -0.011692
Au     15.41585     12.29376      9.81999         0.008240     -0.004241     -0.000583
Au     18.20992     15.03838     12.73038         0.020069      0.005614      0.006025
Au     14.08231     14.68694      9.16135        -0.008069      0.001186      0.006474
Au     14.69406     10.86624     12.08633        -0.008437      0.005793      0.013281
Au     10.03392     16.17412     11.28496         0.000009      0.007761     -0.013198
Au      9.78080     16.32375     14.03115         0.014091     -0.007058      0.009775
Au     11.29409     18.31300     12.59347         0.007623      0.010303     -0.003942
Au     12.95270     20.04236     14.02592         0.018084      0.000719     -0.016733
Au     12.49625     16.84895     10.15885        -0.005973     -0.003424      0.006147
Au     13.57333     19.16109     11.26206         0.003349     -0.007104     -0.002402
Au     17.75329     17.15277     10.91907         0.005005      0.001568      0.000105
Au     18.69928     19.62833     11.65376        -0.008207      0.006189      0.010989
Au     15.08031     21.09848     12.60768        -0.027502     -0.002168     -0.010304
Au     19.27737     17.50227     13.42858        -0.000540      0.008101      0.000888
Au     15.17084     17.22032      9.50532         0.001670      0.004021     -0.000079
Au     16.20951     19.57144     10.48421        -0.006484      0.000422      0.001170
Au     17.62554     21.22335     13.73775         0.002423      0.014831     -0.015691
Au     16.40427     18.66383     13.18282        -0.001315     -0.017429      0.014445
Au     15.21873     16.34753     12.15698        -0.010472     -0.017341      0.034320
Au     20.21726     20.11122     13.90223        -0.003905      0.010182     -0.013731
Au     12.31419     15.68473     15.72242        -0.007582      0.005838      0.001924
Au     13.20321     12.58277     19.06281         0.003585     -0.002825      0.004905
Au      9.94159     13.91781     15.60101         0.016845      0.001925     -0.001735
Au     13.14810     10.49212     14.35637        -0.007685      0.019819      0.008292
Au     12.73409     13.29067     14.33556        -0.010216     -0.008592     -0.007826
Au     10.51155     11.49903     14.30909        -0.015476      0.000774     -0.006639
Au     11.26476     14.47821     18.17967        -0.008979     -0.000120     -0.016624
Au     11.65126     12.01656     16.79419         0.001003     -0.001629     -0.024037
Au     14.23568     13.70791     16.75461         0.005189     -0.021899     -0.000560
Au     19.38606     15.48395     15.30246        -0.010277     -0.007594      0.009453
Au     15.82304     13.68592     19.15339        -0.008998      0.003841     -0.006407
Au     14.19764     10.88178     16.91832         0.012441     -0.006804      0.022523
Au     13.60491     15.38214     19.45861         0.005495      0.010405     -0.022001
Au     15.84899     11.24779     14.60117        -0.002849      0.012265      0.011650
Au     15.15312     14.72664     14.39796         0.005124      0.006356     -0.028898
Au     17.94692     14.47156     17.49334        -0.010641      0.001415     -0.021226
Au     16.70156     12.04484     17.11157        -0.006294     -0.003511     -0.006057
Au     17.75172     13.28161     14.87961        -0.016519      0.000850      0.005105
Au     11.23801     18.35072     15.44014        -0.009357     -0.024250      0.016374
Au      9.68810     16.40308     16.79224         0.019995     -0.001955     -0.005142
Au     11.92266     17.28747     18.13766        -0.010167     -0.010735     -0.019343
Au     18.22912     19.30177     15.67860         0.015646     -0.000739      0.017149
Au     14.77427     16.41854     16.94739         0.042697     -0.001829      0.022325
Au     16.89119     16.73984     15.09873        -0.002287     -0.007971      0.000469
Au     15.49401     20.42772     15.36065        -0.003888     -0.007825      0.003621
Au     18.54307     17.16794     17.40279         0.001005      0.013079      0.008679
Au     14.11338     17.53051     14.44889         0.000095      0.009598     -0.015957
Au     14.28820     18.09000     19.28588         0.013289     -0.000500     -0.023013
Au     13.48281     19.25987     16.81694         0.005535     -0.005505      0.004509
Au     16.52332     16.36962     19.13553        -0.000878     -0.012627      0.006758
Au     16.27775     18.88820     17.56796        -0.006675     -0.016361     -0.004513
