58
# total energy = -160.61827343 eVAu     10.60018     14.29347     12.62237        -0.016556     -0.076628      0.046441
Au     12.10546     15.20207     10.42995         0.060135     -0.075977     -0.044354
Au     12.71446     12.60618     11.72122        -0.079373     -0.025869     -0.085613
Au     14.04554     11.35992     13.85913        -0.093182     -0.448138     -0.089965
Au     13.03623     14.21936     14.21461        -0.439417     -0.108774      0.048966
Au     11.26726     11.92300     14.03636         0.085803      0.146177      0.044324
Au     14.15971     13.43836      9.52713        -0.033415      0.040909      0.026045
Au     18.13550     13.13109     12.38125         0.144503     -0.110982     -0.142467
Au     19.21581     15.16401     10.67722         0.056088     -0.087765      0.001616
Au     14.51122     14.96854     12.01440        -0.164245     -0.143411     -0.446178
Au     16.69480     14.29860     10.08315         0.085104     -0.103335     -0.162162
Au     16.92031     11.28802     14.13829         0.052380      0.039211     -0.056059
Au     15.92153     13.89871     14.29781         0.117078     -0.285579     -0.014113
Au     19.86140     15.18567     13.38081         0.150341     -0.038351     -0.042118
Au     17.08053     15.81494     12.55822         0.345710     -0.082895     -0.295960
Au     15.56621     12.24575     11.74183         0.109341     -0.197948     -0.278062
Au     12.22584     16.61850     12.87596        -0.459730      0.125325     -0.119040
Au     12.45034     19.33646     12.82317        -0.251032      0.208388     -0.103695
Au     12.66182     17.96684     10.40874         0.063082      0.063660      0.007169
Au     14.76803     20.64114     11.93168         0.003471     -0.047735     -0.053872
Au     17.24421     17.14418     10.00284         0.143361     -0.038573     -0.237438
Au     17.34129     19.61832     11.36449         0.036509      0.095721     -0.079654
Au     16.80160     21.12025     13.86844         0.077237      0.019294     -0.014039
Au     19.29527     17.63264     11.95130         0.107043     -0.027756     -0.035732
Au     14.65581     16.22420      9.41151        -0.058228     -0.024167     -0.135605
Au     15.17209     19.03193      9.58612        -0.028432     -0.112583      0.181903
Au     19.36131     20.05785     13.30848        -0.120137     -0.043469      0.052111
Au     17.12183     18.25318     13.91969         0.173056      0.336573     -0.031213
Au     14.99196     17.74187     12.10383        -0.202582      0.358079     -0.346138
Au     12.87926     15.57423     16.74304        -0.248267      0.010366      0.113863
Au     11.26493     13.30141     16.49113        -0.183821     -0.086551     -0.062119
Au     12.51673     10.75306     16.31836         0.126743      0.143980     -0.047174
Au     12.90473     13.51903     18.77427         0.048704     -0.046114      0.036508
Au     14.15777     15.92374     19.32598        -0.058786      0.046184      0.201070
Au     10.68104     15.69358     15.05170        -0.270229     -0.000963      0.009723
Au     14.23489     12.96751     16.33274        -0.129570     -0.446467      0.218967
Au     17.72159     15.91260     15.24862         0.484759     -0.045685      0.150156
Au     14.51387     11.19926     18.50397         0.046717      0.195862     -0.136254
Au     15.63261     15.25452     16.87727         0.000682     -0.053568      0.376095
Au     20.38719     15.28234     16.13504        -0.005923     -0.072391      0.057199
Au     15.84348     13.64735     19.15054         0.115880      0.098853      0.039846
Au     15.27446     10.14308     16.03539        -0.014974      0.082287      0.032498
Au     18.25969     14.51167     17.80363         0.166190     -0.043730      0.109673
Au     16.92494     12.22602     16.94326         0.146642     -0.359583      0.229279
Au     18.73530     13.22784     15.13203         0.224903     -0.110307      0.017422
Au     12.33584     17.97201     15.33925        -0.389495      0.238373      0.055388
Au     13.56369     19.87551     16.99088        -0.143806      0.058445      0.243763
Au     12.33977     17.76679     18.21471        -0.095012      0.191669      0.139212
Au     18.53777     19.77842     15.96827         0.134707      0.150498      0.068852
Au     16.00685     17.97879     16.53279         0.070926      0.395948      0.334242
Au     16.06200     20.89469     16.56865         0.086777     -0.049325      0.090752
Au     18.98395     17.35170     17.40758         0.246822      0.012307      0.184748
Au     14.75790     16.48034     14.54670        -0.164729      0.145400      0.003781
Au     14.87849     18.61526     19.12478        -0.027747      0.000962     -0.089881
Au     16.88018     16.58367     19.10684         0.052426     -0.008462      0.159646
Au     17.47873     19.39921     18.55434        -0.051009     -0.129466     -0.134173
Au     14.60517     19.47111     14.50940        -0.209299      0.309857     -0.022855
Au     19.99049     17.69755     14.73160         0.175878      0.018223      0.024670
