58
# total energy = -160.87429907 eVAu     10.80345     15.11882     13.16575        -0.057526      0.095991     -0.020446
Au     12.22741     13.81103     10.94932         0.012101      0.036989      0.040848
Au     13.22897     13.85178     13.83239        -0.172195     -0.022899     -0.111082
Au     13.43676     11.50186     12.09329        -0.021701      0.044448     -0.001208
Au     13.65209     15.28371      9.11366         0.003873     -0.150634      0.006003
Au     10.83568     12.33952     12.81156         0.075546     -0.066955      0.024016
Au     18.21035     12.77453     14.45992         0.125450     -0.116176     -0.003566
Au     14.76490     10.63939     14.32559         0.116089     -0.034977     -0.015092
Au     17.48746     14.02693     10.89045         0.062542     -0.057855      0.085134
Au     17.02167     15.39659     13.50012        -0.012336      0.028573      0.039624
Au     19.51099     14.56405     12.75103         0.142128     -0.022838     -0.073280
Au     14.94807     12.97213     10.14116        -0.013401     -0.030180     -0.002522
Au     14.73574     15.09536     11.86660        -0.099568     -0.108593     -0.124186
Au     16.16778     12.27502     12.59613         0.008376     -0.083707      0.009779
Au     11.93511     17.57880     13.74714        -0.077471     -0.027058     -0.078453
Au     12.97664     19.16937     11.77382         0.007519      0.100246     -0.026928
Au     12.05101     16.61481     11.10366         0.030409     -0.050511      0.037573
Au     14.17284     17.90834      9.68124         0.047791      0.088259      0.024153
Au     18.44563     16.73201     11.20243        -0.038560     -0.047287      0.029270
Au     16.29804     16.04178      9.49971        -0.033348     -0.017135     -0.026641
Au     15.50806     20.39421     12.02336        -0.021866     -0.014886     -0.004531
Au     13.93953     19.55049     14.33116         0.021303      0.175894     -0.032954
Au     16.54373     20.74590     14.60870         0.042821      0.005852     -0.029673
Au     18.12197     19.30217     12.43819        -0.069337     -0.013826      0.017736
Au     16.81420     18.74974     10.05821        -0.043304     -0.024158      0.033578
Au     15.47381     17.64947     12.34287        -0.010985      0.194580     -0.088755
Au     19.57156     17.19930     13.77010         0.041144     -0.037423     -0.020709
Au     14.49486     16.24279     14.54156         0.011987      0.135826     -0.038688
Au     12.97545     11.91312     19.16911        -0.014267     -0.057561      0.011537
Au     10.49782     13.29359     15.39563        -0.044880     -0.024322      0.028334
Au     12.07200     10.76417     14.72611         0.078031      0.046955     -0.126154
Au     13.21070     12.89411     16.39992         0.026505     -0.013034      0.048518
Au     11.31281     14.02820     18.13755         0.014948     -0.033642     -0.046136
Au     14.06439     10.35830     17.05228         0.000482     -0.089813     -0.036735
Au     13.87600     14.42318     19.73923         0.003582      0.034139     -0.021289
Au     11.60698     15.75469     15.85924        -0.110078      0.162304      0.054957
Au     11.07961     11.24909     17.25894        -0.024210      0.008559      0.040814
Au     14.38335     15.25795     17.11744        -0.063675     -0.210019      0.059288
Au     19.24604     15.43302     18.32291         0.054973     -0.029937      0.000866
Au     15.62072     12.36695     18.49344        -0.018894      0.004444     -0.019214
Au     19.64100     14.96682     15.53762         0.037666     -0.031968      0.036173
Au     16.64741     14.85067     19.27418         0.081677     -0.021999     -0.026639
Au     15.64518     13.50356     15.21150        -0.087003      0.031715     -0.001214
Au     17.05808     15.77964     16.46452        -0.024382     -0.043899      0.031098
Au     16.68541     11.06783     16.19918         0.090749     -0.006422      0.036930
Au     18.03124     13.19437     17.28762         0.052524     -0.009277      0.017351
Au     12.38211     18.40183     16.30494        -0.034425      0.040284      0.087583
Au     13.26273     19.13789     18.77240         0.066719      0.097571      0.037801
Au     12.29525     16.56486     18.53221        -0.045524      0.028637     -0.000876
Au     19.38160     17.61766     16.61098        -0.014662     -0.071774      0.092818
Au     15.16976     17.86847     16.90844         0.048591      0.061766      0.070907
Au     16.92278     17.96496     14.74778         0.041672      0.026468     -0.006006
Au     17.59269     19.81014     17.14766        -0.055929     -0.030827     -0.024626
Au     14.91632     17.00991     19.71689         0.003125      0.027206      0.034210
Au     17.64304     17.56613     18.95458         0.014747     -0.050171     -0.032956
Au     19.21800     19.77689     14.92422        -0.022192      0.080796     -0.055244
Au     15.92264     19.65528     19.33186        -0.064649      0.035525      0.002959
Au     14.78594     20.56706     16.78840        -0.068704      0.058734      0.055947
