58
# total energy = -161.19824820 eVAu     10.65622     15.25549     13.20273         0.005772      0.027695      0.033993
Au     12.20434     13.84478     11.03220        -0.012588     -0.038749      0.057648
Au     13.06168     14.05865     13.89496         0.029273     -0.004016      0.006998
Au     13.53126     11.59103     12.21167         0.008896     -0.000452     -0.007093
Au     13.65495     15.16731      9.14637        -0.005387      0.034323      0.008537
Au     10.87538     12.38394     12.91614        -0.013414      0.012116      0.044064
Au     18.27284     12.72601     14.49609         0.027404      0.011815     -0.011950
Au     14.98897     10.41425     14.27030        -0.040705     -0.000447     -0.019311
Au     17.55434     13.95339     10.99984         0.000131     -0.018529     -0.007706
Au     17.03880     15.38544     13.49936         0.037746      0.013842      0.020037
Au     19.59180     14.51932     12.80806         0.061108     -0.013057     -0.011791
Au     15.00595     12.93636     10.24061         0.021546      0.046015      0.003990
Au     14.70081     15.11527     11.90312        -0.011432     -0.020391      0.022345
Au     16.34846     12.04508     12.56141         0.000609     -0.004691      0.021062
Au     11.84535     17.73374     13.76605        -0.015978     -0.007767     -0.026653
Au     12.94052     19.24759     11.73080        -0.000779     -0.010326     -0.001591
Au     12.07123     16.63063     11.18658        -0.029708     -0.011512     -0.007300
Au     14.15506     17.82485      9.72864         0.014719      0.008453     -0.034509
Au     18.42646     16.66316     11.25199         0.019112      0.001913     -0.048028
Au     16.29416     15.91699      9.55387        -0.002957     -0.014971      0.039102
Au     15.47942     20.44212     12.01291        -0.039543     -0.010395     -0.042696
Au     13.71919     19.92747     14.26872         0.027609     -0.042938     -0.062523
Au     16.47437     20.69958     14.59889        -0.014615      0.012050     -0.004413
Au     18.03258     19.21731     12.46122         0.032841      0.024930     -0.013901
Au     16.78860     18.66108     10.06010         0.000924      0.018830     -0.018942
Au     15.40206     17.71072     12.33867         0.034209      0.050928     -0.010515
Au     19.59229     17.14719     13.78877        -0.023087      0.010259      0.022360
Au     14.47181     16.36673     14.52153        -0.012406      0.016395      0.074271
Au     13.01229     11.89749     19.04239        -0.027414     -0.026508     -0.007650
Au     10.51453     13.46394     15.43538        -0.027255      0.039964      0.004079
Au     12.29681     10.76577     14.64183        -0.023376     -0.063433      0.001463
Au     13.30513     12.81471     16.33484        -0.032910     -0.098801     -0.000756
Au     11.41553     14.09598     18.02155         0.004127      0.012414      0.026546
Au     14.15022     10.27515     16.97675         0.020594     -0.015974     -0.007916
Au     13.89461     14.42085     19.63584        -0.023860     -0.007184      0.025920
Au     11.14015     16.09734     15.93507         0.037074      0.047497     -0.010499
Au     11.10136     11.27103     17.12054        -0.029540      0.027958     -0.028118
Au     14.30843     15.21064     16.99651         0.038785      0.028755     -0.019590
Au     19.31743     15.41992     18.33589        -0.013449     -0.026189      0.020879
Au     15.67477     12.34182     18.47252         0.009256     -0.013038     -0.010010
Au     19.69887     14.90786     15.58016         0.004255      0.008000      0.001410
Au     16.69325     14.81781     19.25767         0.000364      0.016174     -0.000169
Au     15.60053     13.48782     14.99782         0.064930     -0.003816     -0.006817
Au     17.02792     15.64937     16.45354         0.011715      0.017887     -0.058569
Au     16.75544     11.09898     16.20651         0.030042     -0.006876     -0.013256
Au     18.13739     13.15560     17.33781        -0.015589     -0.050097     -0.024781
Au     12.41651     18.55961     16.29850        -0.022589      0.034820      0.057123
Au     13.28924     19.18370     18.83454        -0.031104      0.029306      0.024934
Au     12.33179     16.64224     18.45068        -0.026433      0.010444     -0.000299
Au     19.35112     17.56109     16.61141        -0.030786      0.017137     -0.013220
Au     15.16256     17.81879     16.97502         0.008701     -0.061696      0.000309
Au     16.89312     17.90657     14.77668         0.044301     -0.020729      0.024159
Au     17.48274     19.72985     17.09638         0.042993      0.008661     -0.022379
Au     14.92952     16.98293     19.72942        -0.022372      0.000258      0.023629
Au     17.63559     17.50852     18.93873         0.016643     -0.016009     -0.018962
Au     19.16717     19.72909     14.91449        -0.036617      0.005487     -0.002115
Au     15.94779     19.63150     19.36119        -0.054973      0.014606      0.009959
Au     14.69467     20.53877     16.78464        -0.014817     -0.000342     -0.000789
