58
# total energy = -160.94240374 eVAu     10.78309     15.14731     13.17298        -0.139390     -0.063032     -0.020020
Au     12.22020     13.82738     10.96292        -0.050968     -0.024807      0.034273
Au     13.18676     13.88047     13.82414        -0.008813      0.049401      0.026828
Au     13.45192     11.52935     12.10132         0.033735     -0.035620      0.036013
Au     13.65427     15.25676      9.11619         0.006890      0.018093     -0.022203
Au     10.85196     12.33242     12.82732        -0.023253      0.056719     -0.008545
Au     18.23871     12.76331     14.46888        -0.022362     -0.016164      0.027035
Au     14.81267     10.60057     14.30760         0.000583     -0.037170     -0.025036
Au     17.49389     14.01420     10.91051         0.028108     -0.014607      0.072451
Au     17.00467     15.40563     13.50091         0.119705     -0.068641     -0.052932
Au     19.53783     14.55251     12.74444        -0.048606      0.042436      0.075139
Au     14.95337     12.96278     10.14809         0.039510     -0.107993     -0.031278
Au     14.72739     15.08309     11.84246        -0.003055      0.120377      0.105771
Au     16.20435     12.22301     12.58812         0.046410     -0.008055      0.014634
Au     11.91390     17.58729     13.73781         0.025567      0.172204      0.011592
Au     12.97021     19.17856     11.76318        -0.080555      0.067511      0.014330
Au     12.03646     16.61545     11.10302         0.089850      0.020707     -0.024345
Au     14.18337     17.91039      9.69172        -0.054648     -0.075448     -0.035590
Au     18.45004     16.71489     11.19656        -0.038119     -0.059024      0.059861
Au     16.29900     16.02551      9.48871        -0.005766     -0.055892      0.023708
Au     15.49841     20.38090     12.02797         0.025320      0.158155     -0.038934
Au     13.89665     19.63375     14.31919        -0.074203      0.052774      0.067444
Au     16.53307     20.73302     14.61015         0.051160     -0.004784      0.009981
Au     18.11387     19.27828     12.44437        -0.056999     -0.001979      0.005219
Au     16.80796     18.72852     10.07026         0.039277      0.014971     -0.029072
Au     15.45139     17.67002     12.34013        -0.024784     -0.122086     -0.001959
Au     19.57654     17.18957     13.77079         0.016229     -0.040056      0.015128
Au     14.47719     16.28202     14.53448        -0.015167     -0.008586     -0.022905
Au     12.98182     11.90998     19.15539        -0.012610     -0.027536      0.032686
Au     10.50107     13.30476     15.40732        -0.022940      0.047017     -0.014207
Au     12.11181     10.78027     14.70852         0.117826     -0.007173      0.000887
Au     13.21197     12.88703     16.39613         0.015175     -0.044426     -0.063168
Au     11.31371     14.03019     18.12008         0.023070      0.016904     -0.028848
Au     14.08034     10.36311     17.03376        -0.010706     -0.136120     -0.025610
Au     13.89096     14.42696     19.71330        -0.015571      0.010799      0.049848
Au     11.53133     15.81623     15.87026        -0.146600     -0.003293      0.053724
Au     11.07938     11.24982     17.26090        -0.013394     -0.019668     -0.051494
Au     14.36562     15.23101     17.09995         0.049536      0.071348     -0.051826
Au     19.26115     15.42534     18.33576         0.073738     -0.020458      0.007450
Au     15.63119     12.34960     18.51733         0.024444      0.021593     -0.060227
Au     19.64679     14.97144     15.55361         0.022826     -0.091183     -0.068136
Au     16.66756     14.84826     19.26738        -0.013020     -0.025102      0.022940
Au     15.62557     13.51010     15.17622         0.022334     -0.040240     -0.064942
Au     17.05238     15.76067     16.46508        -0.067952     -0.024884      0.028490
Au     16.69135     11.07083     16.20215         0.138454      0.107886      0.045036
Au     18.03556     13.19631     17.30729         0.032531     -0.100546     -0.071895
Au     12.37021     18.41730     16.31273         0.067233      0.136277     -0.030032
Au     13.28121     19.14756     18.78054        -0.055777      0.014585      0.001382
Au     12.30257     16.56754     18.51874        -0.000824      0.063393      0.039679
Au     19.37908     17.60234     16.63160        -0.016414      0.077482     -0.065424
Au     15.16803     17.86906     16.90701         0.005776     -0.094780      0.083864
Au     16.92337     17.94965     14.75420         0.067182      0.080291     -0.015641
Au     17.59542     19.79502     17.15571        -0.079211     -0.030954     -0.060278
Au     14.93414     17.01574     19.71774        -0.036656     -0.046043      0.010069
Au     17.65009     17.55786     18.96148        -0.021955      0.007464     -0.019896
Au     19.21307     19.78469     14.91620        -0.045870     -0.062942      0.056303
Au     15.91688     19.65878     19.34528         0.080160      0.024709     -0.017615
Au     14.78257     20.56583     16.80002        -0.056441      0.066199     -0.009704
