58
# total energy = -161.34877416 eVAu     10.11094     13.78383     12.73987         0.011461      0.010634     -0.005232
Au     11.69292     14.07925     10.39440         0.027911     -0.003311      0.034013
Au     12.00048     11.73649     11.96506         0.017337      0.041599      0.018371
Au     12.48605     15.67494     12.85756        -0.030731      0.063283     -0.011301
Au     16.87146     12.63504     12.29012        -0.017929     -0.000200      0.005672
Au     14.16505     13.65549     11.89912         0.024351     -0.008916     -0.001323
Au     16.75575     14.68505     10.28885        -0.065562     -0.050623      0.012526
Au     15.40854     12.29283      9.80767         0.009392      0.016261      0.030356
Au     18.31604     15.00374     12.66241        -0.084707     -0.011726      0.005677
Au     14.11550     14.72405      9.21315        -0.036890     -0.028144     -0.003244
Au     14.69061     10.84926     12.08132        -0.017652      0.022829     -0.014583
Au     10.04623     16.17625     11.29283         0.014844     -0.016922      0.025364
Au      9.82121     16.32172     14.04325        -0.027763     -0.012690     -0.085053
Au     11.35858     18.29195     12.60385        -0.070358     -0.024020      0.024994
Au     12.95984     20.03984     14.05987         0.026176     -0.018047     -0.026284
Au     12.50491     16.87241     10.19267         0.024683     -0.019549     -0.013176
Au     13.53985     19.24317     11.21721         0.028092     -0.040207      0.000981
Au     17.75282     17.14325     10.87377         0.020608      0.087315      0.055516
Au     18.68728     19.62854     11.62123        -0.013528     -0.055779      0.033412
Au     15.06102     21.09635     12.63278         0.055170     -0.010533     -0.007729
Au     19.25274     17.49010     13.39259         0.001742      0.047771      0.007175
Au     15.16842     17.26484      9.49941        -0.016778     -0.020472     -0.010729
Au     16.18889     19.60331     10.48640         0.031848      0.015087      0.018150
Au     17.62252     21.17262     13.73560        -0.007602      0.006306     -0.014253
Au     16.38746     18.61912     13.14924        -0.002814     -0.019199      0.037209
Au     15.23733     16.28207     12.10844        -0.009977      0.040371      0.069671
Au     20.20853     20.07733     13.87954        -0.010692      0.000790      0.015682
Au     12.33360     15.65336     15.75196        -0.057244      0.023939     -0.029478
Au     13.18323     12.60762     19.05470         0.043556     -0.010888      0.002134
Au      9.93049     13.92260     15.59928         0.049214     -0.072779     -0.000416
Au     13.13277     10.46636     14.36163         0.001879      0.062265     -0.022712
Au     12.76771     13.26493     14.37526        -0.038685     -0.085433     -0.010115
Au     10.49529     11.49238     14.31803         0.063436      0.055253      0.012573
Au     11.24251     14.48809     18.18998         0.015934      0.012344     -0.003604
Au     11.63564     12.02078     16.80497        -0.015908      0.021817     -0.057274
Au     14.30509     13.74047     16.77588        -0.027216     -0.012464      0.014814
Au     19.35558     15.51072     15.29456        -0.015977      0.021804      0.015101
Au     15.83413     13.63937     19.19578        -0.050157      0.023454     -0.039678
Au     14.19109     10.91043     16.91394        -0.031589     -0.010392      0.005655
Au     13.61438     15.39509     19.44815         0.003718      0.000988     -0.014426
Au     15.82844     11.27565     14.57960        -0.003549     -0.006072     -0.014793
Au     15.16987     14.74826     14.39691        -0.011911      0.028095     -0.038127
Au     17.81013     14.52785     17.42451         0.062534     -0.079155     -0.008424
Au     16.70361     12.03790     17.07806         0.028927      0.055453      0.049499
Au     17.72884     13.31021     14.82735         0.014065     -0.028423      0.061335
Au     11.25677     18.32679     15.45460        -0.016331      0.012871     -0.003240
Au      9.67325     16.39862     16.79049         0.047301      0.028919      0.062398
Au     11.91659     17.30045     18.13199        -0.030440     -0.059767      0.013707
Au     18.25998     19.30243     15.72746        -0.010721     -0.011098     -0.052233
Au     14.75320     16.48149     16.96025         0.017412     -0.031723      0.045110
Au     16.87511     16.78161     15.15687         0.019240      0.003671     -0.078619
Au     15.51005     20.40991     15.36642         0.005938     -0.018196      0.017555
Au     18.52908     17.16806     17.47155         0.011515      0.059667     -0.036921
Au     14.09499     17.49593     14.40710         0.043397      0.027900     -0.021366
Au     14.26592     18.12640     19.30651         0.049858     -0.033978     -0.013845
Au     13.49086     19.26711     16.82756         0.008399      0.029366     -0.009705
Au     16.47421     16.35675     19.18912        -0.027174      0.014005     -0.061908
Au     16.28628     18.91356     17.60326        -0.030055     -0.033352      0.015144
