58
# total energy = -161.31920122 eVAu     10.10470     13.77548     12.73393         0.009925      0.038193     -0.000197
Au     11.69451     14.06439     10.39212         0.034835      0.039744      0.023759
Au     11.98524     11.72916     11.96248         0.029301      0.020568      0.008491
Au     12.48990     15.66991     12.84542         0.000010      0.009334      0.063013
Au     16.87614     12.63730     12.28203        -0.010663     -0.018346      0.045981
Au     14.16338     13.63382     11.90317        -0.002388      0.093999      0.031165
Au     16.77234     14.67045     10.27132        -0.064691      0.089801      0.070557
Au     15.41478     12.28821      9.81236        -0.004398      0.001856     -0.017253
Au     18.33498     14.99652     12.64839        -0.098322      0.035619      0.030448
Au     14.11820     14.72321      9.21659        -0.013049     -0.014611      0.026509
Au     14.67764     10.85198     12.08180         0.012163     -0.019429     -0.017039
Au     10.05098     16.16843     11.29659         0.025637     -0.017755     -0.035012
Au      9.82601     16.31707     14.03661        -0.041542     -0.051444      0.045384
Au     11.36194     18.28218     12.61351         0.020558      0.054539     -0.013864
Au     12.96106     20.04574     14.07503        -0.008980     -0.030108     -0.062176
Au     12.50646     16.87248     10.18969         0.001578     -0.011849      0.010185
Au     13.53244     19.26636     11.19651        -0.019482     -0.090477      0.057586
Au     17.75623     17.15072     10.86661        -0.057691     -0.034461      0.031807
Au     18.69399     19.62749     11.60967         0.011620     -0.024189      0.065819
Au     15.06745     21.08864     12.64240         0.032766     -0.007492      0.000857
Au     19.24040     17.50253     13.39629         0.019795     -0.004045     -0.001936
Au     15.15834     17.27714      9.49376         0.033911     -0.034563      0.060604
Au     16.18925     19.62156     10.48557         0.020658     -0.037500     -0.006514
Au     17.63206     21.14083     13.74135        -0.026047      0.035607     -0.009687
Au     16.38219     18.60494     13.13035         0.006845      0.051357      0.016751
Au     15.23972     16.26389     12.10734         0.027659      0.031244     -0.077718
Au     20.22690     20.07956     13.87546        -0.045003     -0.006782     -0.010005
Au     12.33187     15.65248     15.75841         0.010462     -0.008476     -0.108461
Au     13.17776     12.60908     19.05636         0.024306     -0.021031     -0.035119
Au      9.93589     13.91158     15.59723         0.003561      0.077233      0.022621
Au     13.12736     10.46905     14.36450        -0.011525      0.016264     -0.016511
Au     12.76237     13.25365     14.38476         0.047877      0.063391     -0.009421
Au     10.49292     11.49708     14.31920         0.022132     -0.031064     -0.020043
Au     11.24209     14.48492     18.19306         0.012286     -0.014378      0.003009
Au     11.62333     12.01580     16.80291         0.062177      0.009357      0.025518
Au     14.33298     13.73716     16.78171        -0.067425     -0.008643     -0.046254
Au     19.35643     15.51749     15.29433        -0.040344      0.026459     -0.011391
Au     15.82287     13.62814     19.20838        -0.012249      0.049293     -0.046853
Au     14.19041     10.91434     16.91651        -0.002880      0.030447      0.012225
Au     13.60608     15.39496     19.46737         0.020801      0.025688     -0.049100
Au     15.81030     11.30241     14.57764         0.044200      0.011090      0.021782
Au     15.16753     14.76372     14.39621        -0.057172     -0.014087      0.031225
Au     17.74876     14.54735     17.38236         0.102199      0.000827      0.069958
Au     16.72845     12.03382     17.08517        -0.085095     -0.029012      0.011632
Au     17.74116     13.30465     14.82286        -0.010129     -0.015307     -0.014640
Au     11.25089     18.32088     15.46025         0.039014      0.053242     -0.002932
Au      9.68100     16.39933     16.80127        -0.015840     -0.048386     -0.053151
Au     11.90949     17.29174     18.13771         0.089847      0.010902      0.060422
Au     18.28908     19.30479     15.74415        -0.074935     -0.006610     -0.034531
Au     14.75061     16.47778     16.96118         0.032629      0.020253     -0.011848
Au     16.88161     16.80501     15.14613        -0.028747     -0.054192      0.009348
Au     15.51112     20.42758     15.38031         0.044190     -0.060120     -0.003509
Au     18.52664     17.17204     17.47888        -0.021298      0.026229     -0.025193
Au     14.09529     17.51338     14.39093         0.008505     -0.066995      0.065392
Au     14.26805     18.13043     19.31145        -0.009147     -0.065597     -0.046326
Au     13.49250     19.27261     16.83405        -0.023661     -0.021302     -0.009392
Au     16.46168     16.35645     19.19691        -0.009556     -0.008047     -0.082110
Au     16.28593     18.92432     17.61338         0.010811     -0.046236     -0.043862
