58
# total energy = -161.17066684 eVAu     10.66400     15.24208     13.19430        -0.006127     -0.005367      0.027718
Au     12.19704     13.84345     11.01847         0.039094      0.012516      0.031932
Au     13.06983     14.04136     13.87624         0.047509     -0.013705      0.047150
Au     13.52380     11.57842     12.19719         0.006852      0.033950     -0.018766
Au     13.66222     15.17399      9.13358        -0.044613      0.027850      0.046864
Au     10.87232     12.37317     12.89723        -0.015111      0.018822      0.044434
Au     18.26931     12.73150     14.49255         0.011879     -0.012460      0.015875
Au     14.97912     10.43923     14.27042        -0.044415     -0.025184      0.021832
Au     17.53488     13.96068     10.99178         0.057681     -0.005325     -0.000180
Au     17.02793     15.38998     13.49811         0.048741     -0.013854      0.006186
Au     19.58206     14.52287     12.80813         0.034803      0.009079     -0.043440
Au     15.00372     12.92885     10.22155        -0.015066      0.027040      0.024333
Au     14.70589     15.10508     11.88289        -0.026030      0.034550      0.061237
Au     16.33777     12.06719     12.56702        -0.014762     -0.018364     -0.010613
Au     11.84836     17.70794     13.75739         0.028265      0.072686      0.029785
Au     12.94364     19.25093     11.73774        -0.024760     -0.047262     -0.024847
Au     12.06855     16.64102     11.17243        -0.007144     -0.076412     -0.026434
Au     14.16087     17.83734      9.72356        -0.021944     -0.015946     -0.012658
Au     18.42512     16.66088     11.24597         0.021537      0.028132     -0.023041
Au     16.29583     15.92741      9.53610         0.005670     -0.003577      0.039595
Au     15.47891     20.43299     12.02597         0.013408      0.026959     -0.076365
Au     13.73689     19.90902     14.27239        -0.009154     -0.062252      0.045706
Au     16.48407     20.70312     14.60601        -0.001126      0.007320     -0.024436
Au     18.04243     19.21886     12.46799        -0.002771      0.020560     -0.057243
Au     16.78967     18.66336     10.05898         0.031321      0.036352      0.027087
Au     15.40308     17.70834     12.34102         0.010285     -0.028651     -0.015718
Au     19.59509     17.15571     13.79016        -0.021907     -0.034632     -0.012231
Au     14.46854     16.35573     14.52369        -0.013183      0.021225     -0.018741
Au     13.00640     11.90098     19.06174         0.018789     -0.016186      0.002249
Au     10.50756     13.42792     15.42637         0.019486      0.081134      0.033593
Au     12.28636     10.78239     14.65309        -0.034501     -0.074017     -0.007494
Au     13.28785     12.82504     16.34591         0.012654     -0.011507     -0.032433
Au     11.39953     14.08407     18.03675        -0.001498      0.014024     -0.016596
Au     14.13871     10.28753     16.98079         0.020758     -0.028306     -0.007581
Au     13.89677     14.42114     19.65112        -0.006367      0.006229     -0.030964
Au     11.17868     16.05870     15.92688         0.020664      0.033026      0.008858
Au     11.10206     11.26212     17.15296        -0.039885      0.022367     -0.073742
Au     14.31369     15.22119     16.99996         0.001154     -0.073162      0.049435
Au     19.32025     15.42302     18.32944        -0.039478     -0.031296      0.044270
Au     15.67269     12.33546     18.48003        -0.026912      0.025509      0.025803
Au     19.68649     14.91310     15.57751         0.024647      0.016949     -0.003784
Au     16.69109     14.81809     19.26386         0.015254      0.021092     -0.024757
Au     15.59926     13.48823     15.01208         0.027367      0.012384      0.011808
Au     17.02831     15.67051     16.45906         0.023221     -0.037061     -0.028661
Au     16.74650     11.10739     16.21492         0.031559     -0.053209     -0.060017
Au     18.12521     13.16316     17.33385         0.005164     -0.014777     -0.004514
Au     12.40844     18.54382     16.29990         0.009445      0.025927      0.006412
Au     13.29395     19.17846     18.82584        -0.040648      0.013801      0.003200
Au     12.33368     16.62466     18.46558        -0.030958      0.055822     -0.020922
Au     19.35740     17.56861     16.61297        -0.023054     -0.018431      0.023942
Au     15.16417     17.82508     16.96354        -0.003252      0.007288      0.027711
Au     16.89683     17.90437     14.77291         0.039142      0.037883      0.011197
Au     17.49740     19.73894     17.09591        -0.010047     -0.017147      0.080042
Au     14.93358     16.99125     19.72413        -0.013382     -0.027136      0.030439
Au     17.64226     17.51184     18.94797        -0.010710      0.015503     -0.036264
Au     19.17467     19.72872     14.92566        -0.009312      0.054042     -0.067699
Au     15.94845     19.64303     19.36298        -0.008517     -0.017888     -0.023900
Au     14.71621     20.55091     16.79333        -0.059714     -0.036906     -0.024649
