58
# total energy = -160.34191878 eVAu     10.42858     14.99373     13.92146         0.086521      0.012836      0.048743
Au     12.29469     14.66102     11.86126        -0.088138      0.030436     -0.070382
Au     12.60776     11.82443     11.32834         0.063889      0.111824     -0.078549
Au     13.59387     10.24639     13.38263         0.016495      0.110089      0.114937
Au     14.11207     13.01297     13.83175         0.151571     -0.104179      0.079263
Au     11.34404     12.33811     13.71517         0.055591      0.087490      0.123441
Au     13.12711     15.50503     14.51272         0.025703      0.163578      0.064627
Au     17.15245     13.04196     13.57631         0.171959      0.012816      0.034540
Au     18.21997     15.53622     12.64479         0.073286     -0.234389      0.032631
Au     15.19683     15.21420     12.55133         0.107152      0.257929      0.015887
Au     17.00561     13.81607     10.77850         0.010803      0.054478      0.087236
Au     14.99019     16.21957      9.81609         0.054089      0.082155      0.042514
Au     14.28737     13.65285     10.17453        -0.066779     -0.099093      0.102738
Au     15.53010     11.63679     11.81325        -0.065376      0.021977      0.047949
Au     11.34329     17.67106     13.78592         0.112937     -0.082989      0.098070
Au     13.15227     19.85377     13.52425         0.111474     -0.147179      0.083301
Au     13.26167     17.33895     11.80513        -0.078534     -0.000722     -0.044062
Au     14.52382     19.81179     11.09555        -0.073127     -0.031097      0.109918
Au     17.87659     16.37022      9.98317        -0.123242     -0.033125      0.001724
Au     17.42084     20.23774     11.10041         0.061714      0.049618      0.036356
Au     14.83211     17.81827     14.42899         0.027938     -0.064626     -0.075270
Au     15.99873     20.46121     13.48410        -0.115499      0.132050      0.140119
Au     19.21858     18.08461     11.81013         0.030471     -0.025790      0.008964
Au     16.25062     18.60823      9.18716        -0.031436     -0.037606     -0.050475
Au     18.92732     20.39972     13.41335        -0.077562     -0.014019     -0.013654
Au     17.70110     17.96877     14.32657        -0.038458     -0.164353      0.060621
Au     20.30790     16.75002     14.06393        -0.041540      0.042414      0.052894
Au     16.27170     17.77749     11.91847        -0.108076     -0.280492      0.186849
Au     11.36935     13.57780     16.21036        -0.126669      0.002856      0.026993
Au     12.99435     11.19591     15.91746         0.078358      0.040270     -0.165191
Au     12.13596     14.94217     18.56788         0.019216      0.151691     -0.032798
Au     12.55633     12.22323     18.39031         0.032905      0.019844     -0.001360
Au     16.48778     15.44697     17.93234        -0.033506     -0.001184     -0.169502
Au     14.52130     13.78813     19.56855         0.031238      0.095549      0.044426
Au     14.39237     13.84719     16.55345         0.004029      0.124176     -0.024623
Au     16.56450     15.41597     20.72835        -0.120381      0.022032     -0.052254
Au     17.18386     13.00118     19.26421        -0.095426      0.120635     -0.085043
Au     15.24728     11.45502     17.80760        -0.034906      0.086303     -0.074091
Au     15.77364     11.00930     15.00386        -0.127173      0.056035     -0.094524
Au     16.31069     15.51441     15.14695         0.000078     -0.049612     -0.116500
Au     19.28124     14.17972     17.82848        -0.050845     -0.031248      0.042350
Au     17.24966     12.85109     16.41631         0.226758     -0.141348     -0.087967
Au     19.16845     14.36308     15.03022        -0.141604      0.072471     -0.006450
Au     12.39230     18.91818     16.09352         0.025299      0.022795      0.005370
Au     13.96493     16.61414     16.98851         0.004703     -0.010104     -0.092218
Au     14.11561     19.14475     18.49895        -0.008002     -0.072169     -0.006825
Au     14.11185     16.60889     19.91503        -0.050610      0.028021     -0.021490
Au     10.96216     16.40831     16.31553         0.066557     -0.076599     -0.067569
Au     11.78087     17.71491     18.60846         0.104482     -0.063442     -0.063125
Au     18.75425     19.02587     18.15106        -0.071099     -0.039470     -0.057815
Au     16.37783     18.08602     16.85715         0.049710     -0.102626     -0.048771
Au     17.60446     20.62024     15.86268        -0.063702     -0.031796     -0.019204
Au     18.75049     16.48277     19.40339        -0.097948      0.012863     -0.046138
Au     16.47940     18.13407     19.80809        -0.057352      0.048691      0.055695
Au     19.04062     16.66736     16.61844         0.298263      0.075007     -0.039271
Au     16.41583     20.60827     18.37133         0.022990     -0.071065     -0.018183
Au     14.75012     20.43020     15.97983        -0.002704     -0.102257     -0.026848
Au     20.03899     19.13106     15.62192        -0.136487     -0.036348      0.001997
