58
# total energy = -161.12960971 eVAu     10.67067     15.22350     13.18787         0.051612     -0.023580      0.018266
Au     12.19271     13.84395     11.00461         0.057990      0.008669      0.038872
Au     13.09393     14.01592     13.85822        -0.040646     -0.030634      0.052376
Au     13.51763     11.56606     12.17117        -0.046355      0.055613      0.030540
Au     13.66436     15.19000      9.12320        -0.039623     -0.011285      0.062435
Au     10.86224     12.36087     12.87881         0.053045      0.030293      0.047188
Au     18.26458     12.73635     14.49218         0.049835     -0.000428     -0.021907
Au     14.95763     10.47050     14.27285        -0.042435     -0.046082      0.053487
Au     17.51480     13.96971     10.97840         0.120203     -0.004982      0.042636
Au     17.01952     15.39558     13.50063         0.088062     -0.054358     -0.058699
Au     19.57843     14.52886     12.80100        -0.040321      0.017189     -0.047523
Au     14.99943     12.92208     10.19868        -0.041801      0.048589      0.043886
Au     14.70762     15.09706     11.86715        -0.010489      0.033365      0.030812
Au     16.32007     12.09505     12.57487        -0.008440     -0.023692     -0.051156
Au     11.85649     17.68409     13.74904         0.044641      0.087720      0.061116
Au     12.94252     19.24895     11.74353        -0.001953     -0.081101     -0.036576
Au     12.06368     16.64194     11.14536        -0.004023     -0.070327      0.032594
Au     14.16347     17.85125      9.71153         0.009145     -0.002327      0.041864
Au     18.42652     16.66240     11.23025         0.032572      0.029902      0.044952
Au     16.30123     15.93925      9.51853        -0.035364      0.036333      0.031650
Au     15.47889     20.42698     12.02957         0.045232     -0.011761     -0.054212
Au     13.76024     19.87255     14.28481        -0.016184     -0.058264      0.053061
Au     16.49686     20.71205     14.61212         0.004879     -0.047869     -0.034556
Au     18.05784     19.22509     12.46726        -0.045894      0.011083     -0.054134
Au     16.79952     18.67424     10.06092        -0.025442      0.011698      0.050868
Au     15.40552     17.69636     12.34514         0.026130      0.044620     -0.086465
Au     19.59525     17.16184     13.79172        -0.021811     -0.040709     -0.045872
Au     14.46132     16.34504     14.51774        -0.007964      0.003080      0.089847
Au     13.00157     11.90302     19.09192         0.014177     -0.017766     -0.056411
Au     10.49928     13.39120     15.41923         0.054259      0.105461      0.044694
Au     12.26547     10.79107     14.67001        -0.032128     -0.045548     -0.051535
Au     13.26501     12.83995     16.35631         0.034462     -0.065039     -0.049942
Au     11.37624     14.06999     18.05656         0.015994      0.017392     -0.048195
Au     14.12636     10.29755     16.98462         0.022200      0.015136      0.001020
Au     13.89854     14.42282     19.66696        -0.003191      0.001855     -0.029041
Au     11.23672     16.01031     15.91655        -0.000811      0.044775      0.022053
Au     11.09416     11.25277     17.18541        -0.000066      0.041146     -0.081652
Au     14.31592     15.21496     17.01690         0.104826      0.082878     -0.022194
Au     19.31712     15.42543     18.32697        -0.037884     -0.106213      0.071147
Au     15.66390     12.33005     18.49676        -0.003441      0.046288     -0.009112
Au     19.67180     14.92505     15.57455         0.063515     -0.021402     -0.030192
Au     16.69089     14.82307     19.26999         0.011544      0.001794     -0.060573
Au     15.60627     13.49033     15.03085        -0.053469      0.026669      0.069561
Au     17.03838     15.69680     16.45767        -0.087891     -0.112571      0.057708
Au     16.74313     11.11283     16.21553        -0.040894     -0.118567     -0.049556
Au     18.10804     13.16721     17.32404         0.028883      0.068013      0.067726
Au     12.39886     18.52859     16.30694         0.007706     -0.022953     -0.076589
Au     13.29168     19.17406     18.81257        -0.003754      0.004034      0.045109
Au     12.33048     16.60962     18.48389        -0.026717      0.061879     -0.045647
Au     19.36110     17.57107     16.62228        -0.000714      0.080244     -0.037761
Au     15.16695     17.84156     16.95285        -0.023495     -0.119673      0.020019
Au     16.91045     17.90209     14.77032         0.006499      0.161208     -0.008525
Au     17.51417     19.74907     17.11333         0.026063     -0.028947     -0.007155
Au     14.93562     16.99671     19.72361         0.011701     -0.001566      0.000545
Au     17.65418     17.51628     18.95295        -0.100633      0.072930     -0.003914
Au     19.18512     19.73968     14.92670        -0.043624      0.014921     -0.016138
Au     15.94821     19.65952     19.36013        -0.015563     -0.090152     -0.000051
Au     14.73679     20.56000     16.80235        -0.082152     -0.006977     -0.050749
