58
# total energy = -161.18461039 eVAu     10.32963     15.03615     13.94797         0.018870      0.047508      0.010145
Au     12.15680     14.73512     11.78306        -0.003941      0.006199      0.014585
Au     12.61395     11.92761     11.27245         0.009824      0.014456      0.013135
Au     13.58865     10.43768     13.37045         0.009629      0.008824      0.034114
Au     14.50259     13.15399     14.06533         0.024640     -0.017661     -0.017373
Au     11.61565     12.58166     13.74386        -0.023179     -0.032406     -0.031932
Au     13.02083     15.49718     14.51145        -0.027995      0.024539      0.020678
Au     17.57373     12.88260     13.52954        -0.007613      0.004296      0.003140
Au     18.93531     15.14155     12.38198        -0.002994      0.013345     -0.010973
Au     15.02257     15.40481     12.49987         0.017888      0.010948     -0.028845
Au     17.02721     13.83858     10.92526        -0.006072     -0.003715     -0.008279
Au     14.82200     16.35324      9.85220        -0.010230      0.031929      0.053478
Au     14.34341     13.72089     10.25966         0.018235      0.028124      0.022051
Au     15.58402     11.71167     11.92552        -0.019555      0.002178      0.000609
Au     11.25227     17.69472     13.85372        -0.016104     -0.024365      0.030117
Au     13.14827     19.72551     13.58898        -0.009830     -0.011132      0.022810
Au     12.96973     17.41915     11.70585        -0.024495     -0.011037      0.008367
Au     14.44985     19.73790     11.15471         0.012658     -0.042655     -0.000398
Au     17.71002     16.34175     10.08041        -0.011070     -0.025325      0.015737
Au     17.30933     20.27647     11.12193        -0.000612      0.009228     -0.008810
Au     14.89002     17.66416     14.44724         0.016819     -0.024659     -0.007751
Au     15.86476     20.56490     13.51458        -0.000692      0.014160      0.008499
Au     19.19632     17.91585     11.84048         0.022229      0.005135      0.010538
Au     16.21539     18.60663      9.23056        -0.001375      0.001859     -0.004085
Au     18.72184     20.15044     13.41707        -0.011707      0.006137     -0.023349
Au     17.81163     17.38690     14.43156        -0.000583      0.007975      0.030096
Au     20.51074     16.77413     14.05568        -0.012226      0.000136      0.004358
Au     16.31648     17.82771     12.07877         0.034923     -0.016078     -0.013795
Au     11.23509     13.61674     16.28207        -0.012385     -0.001046     -0.018138
Au     13.05719     11.32590     15.89009         0.002301      0.016107     -0.030174
Au     12.05924     15.03224     18.59166         0.007417      0.005088     -0.007471
Au     12.57137     12.27340     18.39182         0.006949      0.002228     -0.003957
Au     16.46594     15.42113     17.75200        -0.008329      0.004892      0.002317
Au     14.42674     13.87490     19.63996        -0.019600     -0.006329     -0.007257
Au     14.19877     14.00877     16.72727         0.017508      0.004783     -0.012593
Au     16.46589     15.46652     20.58402         0.027993      0.030364      0.026948
Au     17.05386     13.03837     19.13036         0.004388      0.017266      0.017930
Au     15.28747     11.52225     17.59484         0.007182     -0.006364      0.009214
Au     15.92730     10.91889     14.86470        -0.006906      0.018123     -0.001996
Au     16.21672     15.19243     15.02444         0.033792      0.007220      0.015977
Au     19.22884     14.18796     17.85361        -0.023453      0.021332     -0.028974
Au     17.57809     12.56154     16.33956        -0.008334     -0.002293     -0.010367
Au     19.17263     14.53151     15.09276         0.020345     -0.022188      0.015268
Au     12.23439     19.00214     16.13548        -0.008363     -0.010634      0.008241
Au     13.86290     16.76373     16.94880         0.021246     -0.033570     -0.040158
Au     14.04395     19.17905     18.49191         0.002156     -0.001648      0.009591
Au     13.99989     16.69560     19.91256        -0.006119      0.011470      0.002184
Au     10.88009     16.43562     16.34212         0.006403     -0.007433     -0.029948
Au     11.67524     17.79199     18.62182        -0.010668     -0.002310      0.012847
Au     18.71763     18.99084     18.06385         0.015475     -0.021743     -0.019389
Au     16.39862     18.01399     16.80203         0.003835      0.000649     -0.007647
Au     17.49909     20.56655     15.83080        -0.000542     -0.015281     -0.004522
Au     18.65599     16.51109     19.27639        -0.022780     -0.013646      0.007408
Au     16.40354     18.16019     19.77805        -0.000398     -0.012137     -0.019784
Au     19.92931     16.64880     16.81131        -0.038475     -0.019871     -0.005371
Au     16.39110     20.57015     18.35130        -0.007727      0.006051     -0.014768
Au     14.67093     20.34166     15.99142         0.007238     -0.015145     -0.012306
Au     19.94283     19.10449     15.58833        -0.005591      0.018123      0.000025
