58
# total energy = -161.56069023 eVAu     10.58419     15.02589     12.83265         0.025398      0.006610      0.062419
Au     11.61883     13.07187     10.85681        -0.010240      0.013772      0.037102
Au     13.22976     13.84307     12.92400        -0.020806     -0.040921      0.006465
Au     12.39779     10.80400     12.31556        -0.046995     -0.060183      0.043702
Au     13.82273     14.00262      9.35217         0.001650     -0.008515      0.028661
Au     11.97804     15.84488     10.54428         0.089550     -0.027248      0.084914
Au     18.96934     13.23981     13.63204         0.024209      0.038846      0.007409
Au     18.45279     13.93906     10.82434        -0.005207     -0.036115     -0.055563
Au     16.64966     15.42634      9.08179         0.027346      0.000491     -0.029423
Au     14.44710     11.71680     10.88882         0.039982     -0.017405     -0.025622
Au     14.98108     10.61292     13.45732         0.000157     -0.014775      0.039388
Au     16.47187     12.69875      9.37427        -0.006498     -0.008915      0.014545
Au     17.60567     15.70241     12.96858         0.037090     -0.004636      0.043339
Au     20.40093     15.27887     12.23269         0.025224     -0.001762      0.008269
Au     15.57874     14.36497     11.57471         0.041799     -0.036828     -0.013168
Au     17.05598     11.85218     12.13931         0.016357     -0.029238     -0.037226
Au     11.62161     17.57819     12.80410        -0.015532      0.049042      0.018315
Au     13.22770     19.90668     12.94755         0.015417     -0.000232     -0.015612
Au     12.86023     18.47752     10.57622         0.000188      0.072562     -0.038372
Au     15.15757     19.94736     10.86920        -0.003476      0.026078      0.001204
Au     16.55583     18.18097     13.76079         0.009778     -0.051462     -0.004517
Au     17.82807     19.32428     11.42167        -0.015105     -0.005944     -0.035150
Au     14.42032     16.15918     13.71580        -0.012596      0.012664      0.007762
Au     15.84273     20.88947     13.38525        -0.024149      0.021406      0.010892
Au     18.70280     16.78697     10.49630        -0.009847      0.034526     -0.033746
Au     14.14266     16.71687      8.90877         0.036224     -0.027963      0.008206
Au     16.60904     18.21120      9.12417        -0.032174      0.010113      0.021901
Au     15.44097     17.15269     11.40349        -0.045864      0.031811     -0.035648
Au     19.62450     17.83210     13.04887         0.006038     -0.000934     -0.005632
Au     11.87535     16.18983     15.17622        -0.015660      0.040925      0.008390
Au     13.45676     11.85728     18.02645         0.001054     -0.025563     -0.011201
Au     10.82327     12.43635     13.80455        -0.050231     -0.011941     -0.032050
Au     12.56714     10.37484     15.03841        -0.040388     -0.002631     -0.025510
Au     13.63412     12.91677     15.45643         0.000072     -0.025867      0.025980
Au     11.93476     14.66335     17.59363        -0.002441      0.033205      0.007496
Au      9.88472     14.39405     15.53311        -0.058336      0.034480     -0.029861
Au     11.11767     12.18233     16.60765         0.002129     -0.034094     -0.003276
Au     14.47968     15.32701     16.47897        -0.048344     -0.033393      0.031842
Au     19.88303     15.64760     14.92455         0.009267     -0.006844     -0.018639
Au     16.91629     15.08051     18.45287        -0.018926     -0.020875      0.000316
Au     16.18135     12.55330     17.53820         0.015742     -0.007374     -0.029850
Au     15.07054     10.40265     16.23078        -0.007659     -0.014605     -0.002117
Au     14.35845     14.21893     19.07527        -0.045710     -0.012002     -0.002227
Au     15.98731     13.84526     14.37696         0.068160     -0.021812     -0.008740
Au     17.30976     11.43560     14.99320         0.010231      0.005432     -0.001380
Au     18.43114     13.64991     16.36936         0.040581     -0.000148     -0.020972
Au     11.93603     18.95727     15.23384         0.018223      0.062653      0.020515
Au     12.57849     17.45933     17.60890        -0.030721     -0.005423     -0.021405
Au     19.02370     18.26128     15.82344         0.029376      0.005510     -0.030550
Au     14.60631     18.00695     15.70555        -0.019439      0.013516      0.029173
Au     16.73865     20.02607     16.07150         0.014350      0.015441      0.066615
Au     19.30137     16.10459     17.57421         0.054569     -0.002879      0.003791
Au     14.88113     16.91675     19.10527        -0.025974     -0.004615     -0.019196
Au     14.72688     19.48955     18.02661        -0.038755     -0.006262     -0.036818
Au     18.52639     20.25608     13.95420         0.017246      0.044351     -0.011091
Au     17.19046     17.97088     17.98599        -0.019866      0.042782      0.022891
Au     14.04371     20.74886     15.53829        -0.011821     -0.016569     -0.001650
Au     17.02830     16.14890     15.72366         0.005354      0.009755     -0.025289
