58
# total energy = -160.79584452 eVAu     10.82009     15.10028     13.14727        -0.050158      0.081651      0.091555
Au     12.24330     13.79483     10.93896        -0.078711      0.007812      0.026580
Au     13.24719     13.79634     13.81213        -0.141122      0.023019      0.065992
Au     13.40452     11.46917     12.07937         0.061381      0.017029     -0.048293
Au     13.64959     15.28284      9.11125         0.034740     -0.030741     -0.044485
Au     10.83147     12.33089     12.79236        -0.004898     -0.054676      0.026939
Au     18.20109     12.75772     14.44370         0.118511     -0.069001     -0.057964
Au     14.72005     10.69410     14.35128         0.221934     -0.041911      0.068257
Au     17.49586     14.03059     10.88281        -0.048448     -0.026887      0.040683
Au     17.04655     15.39013     13.51097        -0.229964      0.096378      0.059607
Au     19.50945     14.57647     12.73960         0.230220     -0.115009     -0.078971
Au     14.93501     12.97861     10.12869         0.066791     -0.094160     -0.018234
Au     14.71920     15.08266     11.86913         0.103888      0.170021     -0.032367
Au     16.10866     12.33701     12.61265         0.036364     -0.090193      0.001208
Au     11.94704     17.55616     13.73876         0.002370     -0.003671      0.076611
Au     12.98979     19.18471     11.78347        -0.007729      0.016209     -0.007915
Au     12.08492     16.59819     11.11628         0.023404      0.042152     -0.016919
Au     14.16979     17.93204      9.67100         0.014179      0.020702      0.030682
Au     18.42634     16.74635     11.22134        -0.056991     -0.009662     -0.045139
Au     16.28617     16.06394      9.51008        -0.003565     -0.066067      0.012783
Au     15.51761     20.41207     12.01420        -0.075865      0.074034      0.002409
Au     14.01840     19.46418     14.34122        -0.049277      0.161804     -0.014136
Au     16.57487     20.76943     14.59713        -0.092755      0.083539     -0.001834
Au     18.11430     19.33820     12.43321         0.036413     -0.057845     -0.004270
Au     16.81140     18.77810     10.04820         0.008774     -0.042756     -0.025508
Au     15.50825     17.67466     12.32019        -0.105327     -0.178465      0.004527
Au     19.57582     17.20420     13.76256         0.027737      0.016641      0.047075
Au     14.52836     16.21840     14.54161        -0.018867      0.132588     -0.002539
Au     12.96031     11.90072     19.19579         0.070083     -0.028742     -0.034828
Au     10.47853     13.26728     15.38463         0.049900      0.066325      0.041521
Au     12.02886     10.75147     14.71697         0.062137      0.062289     -0.023218
Au     13.21671     12.90203     16.42123        -0.128346     -0.235253     -0.020902
Au     11.31588     14.01448     18.15283        -0.019441      0.001649     -0.042807
Au     14.03763     10.32256     17.07223         0.032221      0.097976     -0.083062
Au     13.85188     14.42731     19.77642         0.009025     -0.036876     -0.024303
Au     11.70070     15.70082     15.85755        -0.138507      0.147070     -0.045883
Au     11.07254     11.25049     17.26819         0.031770      0.017382      0.007964
Au     14.39367     15.23879     17.16517         0.013016      0.117414     -0.010435
Au     19.23748     15.43678     18.30151         0.067091     -0.104717      0.052361
Au     15.59726     12.39757     18.44724        -0.087727     -0.044293      0.043652
Au     19.64282     14.94921     15.52177         0.014785      0.042238      0.057180
Au     16.63855     14.84797     19.27745         0.088318      0.013989     -0.038462
Au     15.65149     13.50230     15.27064        -0.024674      0.070539     -0.126308
Au     17.06019     15.79813     16.47314        -0.057443      0.001870     -0.053122
Au     16.70332     11.06079     16.20553        -0.097467     -0.143347     -0.041479
Au     18.04009     13.18822     17.25978         0.076851      0.096079      0.119946
Au     12.39161     18.38813     16.31875        -0.051949     -0.051736     -0.093093
Au     13.25208     19.15159     18.77030         0.047726      0.066928      0.088151
Au     12.26890     16.56914     18.55466        -0.001323      0.003208     -0.050522
Au     19.38133     17.62142     16.60474        -0.010703     -0.040067      0.027643
Au     15.18762     17.88645     16.93266         0.016579     -0.089996     -0.037937
Au     16.93460     17.99893     14.73510        -0.053831     -0.191638      0.075451
Au     17.57088     19.82615     17.12650         0.021502     -0.050879      0.022852
Au     14.88722     17.00845     19.72597         0.081868      0.055776      0.010889
Au     17.63568     17.56466     18.93280        -0.053234      0.000316      0.012664
Au     19.21948     19.78859     14.92075         0.087740      0.053628     -0.046237
Au     15.91247     19.66030     19.31014        -0.036983      0.001759      0.075537
Au     14.77048     20.58721     16.78601        -0.032012      0.038576     -0.019549
