58
# total energy = -160.87739184 eVAu     10.43561     14.98192     13.94444        -0.021899      0.126727      0.030930
Au     12.17562     14.71276     11.78174        -0.027020      0.037783      0.091661
Au     12.57083     11.91084     11.33332        -0.036123     -0.054500     -0.044841
Au     13.53376     10.33406     13.37639         0.024993      0.029565      0.072801
Au     14.29886     13.10260     13.89584         0.136011     -0.057330     -0.006819
Au     11.46835     12.41765     13.78528        -0.062070      0.031578     -0.047548
Au     13.13191     15.51644     14.47765        -0.102550      0.100304     -0.037299
Au     17.39431     12.90726     13.55319        -0.059318     -0.039085     -0.044890
Au     18.52474     15.32573     12.54100         0.087669     -0.045309     -0.134850
Au     15.16454     15.30257     12.49093        -0.077730      0.007053      0.060921
Au     16.99089     13.79272     10.83971         0.012186     -0.028243      0.011080
Au     14.93346     16.26593      9.81806        -0.010983     -0.047987     -0.046759
Au     14.27359     13.68194     10.25682         0.112983      0.061264     -0.086530
Au     15.52059     11.63182     11.87251         0.051914      0.068859      0.023831
Au     11.39625     17.66003     13.83378        -0.052347     -0.091513     -0.007122
Au     13.17744     19.79994     13.60192         0.018352     -0.055704      0.048226
Au     13.08472     17.35399     11.65030        -0.027636      0.042640      0.106102
Au     14.50017     19.74695     11.20208        -0.001068      0.021278     -0.049038
Au     17.79998     16.33334     10.01270        -0.062842     -0.048062     -0.015953
Au     17.35773     20.19734     11.15003        -0.046098      0.075905     -0.072454
Au     14.91671     17.75350     14.40236        -0.108772      0.006161     -0.018606
Au     15.90719     20.67852     13.52994        -0.000398     -0.078938     -0.110960
Au     19.18464     18.01772     11.81064         0.046604      0.060920      0.045964
Au     16.19652     18.61020      9.19784         0.009400      0.023261      0.013701
Au     18.80429     20.35695     13.41688        -0.014081     -0.089163      0.009639
Au     17.74313     17.75224     14.36014         0.128449     -0.062922      0.037804
Au     20.35541     16.78207     14.06110         0.063871      0.034031      0.037067
Au     16.30171     17.73297     11.97389        -0.042155      0.032024     -0.032347
Au     11.16914     13.54523     16.29249         0.098741      0.021770      0.069288
Au     13.01134     11.30412     15.89125         0.103715     -0.057862     -0.059323
Au     12.12321     14.99970     18.54627         0.008958     -0.150263      0.007518
Au     12.58975     12.25858     18.36814         0.010082      0.145384      0.078249
Au     16.48939     15.41539     17.78326        -0.018668      0.044198     -0.010587
Au     14.45265     13.86724     19.62939        -0.106781     -0.058451     -0.094475
Au     14.36047     13.95584     16.56085        -0.090987     -0.070557      0.158731
Au     16.44235     15.48243     20.66689         0.009765     -0.007844      0.002223
Au     17.07364     13.08498     19.17765         0.066840     -0.072878      0.040197
Au     15.26540     11.55023     17.68125        -0.022823     -0.052850     -0.025302
Au     15.79642     10.98245     14.92136         0.046304     -0.039096     -0.025356
Au     16.32829     15.36337     15.01843        -0.115098     -0.062705     -0.059272
Au     19.24618     14.17348     17.86650        -0.063365      0.071921     -0.063170
Au     17.55640     12.51175     16.37610         0.001176      0.060010      0.034225
Au     19.10547     14.45876     15.09545         0.124622      0.057460      0.147829
Au     12.33160     18.95293     16.13910         0.011999     -0.026829      0.004086
Au     13.97123     16.68299     16.93588        -0.049479      0.074927      0.049355
Au     14.11758     19.12779     18.51232        -0.052321      0.037079     -0.061805
Au     14.01756     16.67505     19.94309         0.006989     -0.000324     -0.013657
Au     10.96823     16.36326     16.32810        -0.024198      0.100768     -0.132827
Au     11.75620     17.73241     18.59122        -0.022465      0.095304      0.035514
Au     18.72062     18.99282     18.12993         0.020387     -0.001272      0.002901
Au     16.44280     18.01293     16.82108        -0.037715      0.038910      0.103501
Au     17.51365     20.61354     15.84449         0.079312     -0.013836      0.045855
Au     18.60790     16.48864     19.34888         0.111389     -0.002563     -0.096424
Au     16.41747     18.19971     19.89939        -0.002535     -0.030815     -0.108813
Au     19.63651     16.68652     16.75167         0.090668     -0.096481      0.102364
Au     16.42368     20.57958     18.38512        -0.016260     -0.033349     -0.005774
Au     14.73557     20.35368     16.00733        -0.125229     -0.007622      0.053077
Au     19.94000     19.18195     15.61216         0.017637     -0.022732     -0.011839
