58
# total energy = -160.75121215 eVAu     10.12260     13.73595     12.73252        -0.008346      0.007018      0.013301
Au     11.80445     14.03925     10.44942        -0.084702     -0.079926     -0.051423
Au     12.00244     11.66103     11.99632        -0.025579      0.074850     -0.113376
Au     12.48946     15.61371     12.84958         0.006746      0.166728      0.048863
Au     16.93991     12.56311     12.24429        -0.012492      0.123856      0.171699
Au     14.22369     13.56018     12.01133         0.035828      0.132653      0.077211
Au     16.85216     14.64107     10.27237        -0.032799      0.107924      0.067915
Au     15.42533     12.26461      9.87408        -0.004799     -0.030978     -0.127410
Au     17.89618     15.20315     12.83382         0.142548     -0.200175     -0.186319
Au     14.21890     14.75085      9.31732        -0.019032      0.038904     -0.056782
Au     14.67613     10.78074     12.13137        -0.006277     -0.036328     -0.058832
Au     10.12689     16.13806     11.32379        -0.096607      0.040621     -0.071204
Au      9.81315     16.28803     14.05140         0.047899     -0.013224      0.089168
Au     11.37249     18.29284     12.64501         0.126970     -0.022124      0.067468
Au     12.97149     20.12783     14.10809         0.027499     -0.231352     -0.033946
Au     12.54911     16.85929     10.20731         0.074153      0.066947      0.010693
Au     13.70825     19.12106     11.37087        -0.066382      0.052032     -0.025198
Au     17.74828     17.18667     10.77064        -0.028294     -0.084177      0.107909
Au     18.77279     19.63762     11.52632         0.117594     -0.057136      0.044284
Au     15.14077     21.15166     12.65408        -0.102075     -0.087513     -0.020208
Au     19.21312     17.55653     13.40029        -0.010145      0.154318     -0.064246
Au     15.20179     17.37581      9.43085        -0.118016     -0.137784      0.042883
Au     16.28393     19.73591     10.37969        -0.155464      0.024308      0.010112
Au     17.71526     21.09953     13.68980        -0.107468      0.074399      0.118673
Au     16.42380     18.63318     12.94803        -0.108047     -0.133975      0.108950
Au     15.14902     16.27607     12.00312         0.104501     -0.069552      0.043927
Au     20.28506     20.10144     13.81915         0.032414     -0.054034      0.027905
Au     12.31658     15.65951     15.69311        -0.072672      0.154712      0.019941
Au     13.21589     12.49304     19.06510        -0.054966      0.058831      0.000874
Au      9.97200     13.84870     15.61985        -0.020572      0.121081      0.023974
Au     13.05850     10.39531     14.40933         0.044121      0.003218      0.014323
Au     12.69876     13.21700     14.41212         0.159426     -0.019564     -0.065092
Au     10.45723     11.44125     14.30862        -0.128142     -0.041193      0.006661
Au     11.33685     14.40091     18.15628        -0.014837      0.013567      0.008540
Au     11.65797     11.88154     16.78461        -0.038023      0.102416      0.064202
Au     14.25311     13.70846     16.78733         0.098290     -0.072195      0.068498
Au     19.26887     15.58908     15.29300         0.008381     -0.100612      0.045329
Au     15.82433     13.56146     19.20992         0.032341      0.082742     -0.028212
Au     14.22392     10.82935     16.96333         0.008358      0.055086     -0.013545
Au     13.65352     15.32904     19.49182        -0.071077      0.117551     -0.069532
Au     15.48771     11.77667     14.59868         0.307466     -0.075524      0.032836
Au     15.08672     14.89836     14.45918         0.073987     -0.210656     -0.222000
Au     17.20441     14.73075     17.03220         0.177741     -0.110288      0.180712
Au     16.75721     11.98477     17.10950        -0.022225      0.094717     -0.100939
Au     17.85367     13.21197     14.78504        -0.200204      0.018457     -0.003709
Au     11.23792     18.37045     15.50007         0.166576     -0.016761     -0.063624
Au      9.75789     16.35913     16.81172        -0.114093     -0.072354     -0.088015
Au     11.93182     17.23763     18.18224         0.239849      0.075917      0.037457
Au     18.38053     19.32435     15.77544        -0.022664     -0.020539     -0.060594
Au     14.66876     16.50319     16.94745         0.088861      0.067662      0.144380
Au     16.79920     17.01036     15.13862         0.147419     -0.096765      0.052446
Au     15.59917     20.25681     15.32082         0.018210      0.090355     -0.022028
Au     18.54168     17.13389     17.50406        -0.015540      0.037504      0.011001
Au     14.10267     17.57363     14.32578        -0.187287      0.188301     -0.017767
Au     14.28346     18.11637     19.33471        -0.094842     -0.017677     -0.138648
Au     13.53026     19.30567     16.86033        -0.105525     -0.155789     -0.004109
Au     16.42502     16.34894     19.21631         0.018483     -0.073477     -0.096393
Au     16.34760     18.89128     17.63451        -0.156467     -0.025003      0.041018
