58
# total energy = -161.18514512 eVAu     10.32924     15.03562     13.94687         0.019975      0.056287      0.012888
Au     12.15701     14.73549     11.78172        -0.003978      0.006403      0.015773
Au     12.61600     11.92662     11.27230         0.006984      0.016198      0.013613
Au     13.58899     10.43740     13.37024         0.013170      0.012448      0.038745
Au     14.50246     13.15478     14.06571         0.027656     -0.032533     -0.018755
Au     11.61623     12.58341     13.74287        -0.019346     -0.039296     -0.034583
Au     13.02024     15.49574     14.51205        -0.038898      0.032297      0.024026
Au     17.57498     12.88252     13.52872        -0.009196      0.000898      0.004417
Au     18.93758     15.14014     12.38062        -0.001997      0.015409     -0.012842
Au     15.02242     15.40513     12.50292         0.020301      0.019482     -0.045146
Au     17.02775     13.83898     10.92534        -0.007847     -0.000141     -0.010255
Au     14.82064     16.35614      9.85552        -0.012112      0.025176      0.058328
Au     14.34358     13.72176     10.26064         0.024026      0.037256      0.021341
Au     15.58512     11.71223     11.92496        -0.024149      0.000691      0.006449
Au     11.25088     17.69585     13.85445        -0.017280     -0.029805      0.034635
Au     13.14788     19.72593     13.58937        -0.010547     -0.014112      0.021273
Au     12.96715     17.42023     11.70672        -0.024984     -0.013299      0.009484
Au     14.44937     19.73647     11.15453         0.013500     -0.044359     -0.001854
Au     17.70974     16.34247     10.08058        -0.011865     -0.027413      0.017959
Au     17.30897     20.27697     11.12137         0.002572      0.010593     -0.006780
Au     14.88938     17.66287     14.44766         0.015609     -0.024011     -0.009233
Au     15.86418     20.56375     13.51315         0.000878      0.015523      0.014496
Au     19.19773     17.91519     11.84042         0.022903      0.003623      0.009435
Au     16.21646     18.60652      9.23054        -0.000943      0.003054     -0.004446
Au     18.72192     20.14934     13.41712        -0.014731      0.006482     -0.030293
Au     17.81359     17.38513     14.43136        -0.005169      0.005826      0.033484
Au     20.51204     16.77312     14.05517        -0.008484      0.000251      0.001966
Au     16.31807     17.82873     12.08083         0.033465     -0.020606     -0.015719
Au     11.23508     13.61620     16.28180        -0.014120      0.004313     -0.019108
Au     13.05656     11.32635     15.89013         0.002212      0.014634     -0.037676
Au     12.05947     15.03222     18.59201         0.005206      0.007098     -0.008270
Au     12.57165     12.27506     18.39141         0.005903     -0.002234      0.000597
Au     16.46611     15.42250     17.75340        -0.009849     -0.000223      0.000688
Au     14.42718     13.87503     19.64125        -0.022730     -0.009743     -0.008966
Au     14.19933     14.00917     16.72787         0.019601      0.008600     -0.010342
Au     16.46517     15.46671     20.58525         0.035838      0.032007      0.027483
Au     17.05338     13.03818     19.13026         0.004797      0.019094      0.016680
Au     15.28620     11.52222     17.59458         0.012084     -0.006238      0.010286
Au     15.92759     10.91946     14.86445        -0.007989      0.020504     -0.003633
Au     16.21727     15.19157     15.02555         0.039760      0.009046      0.022924
Au     19.22970     14.18710     17.85434        -0.023935      0.025315     -0.036333
Au     17.57663     12.56365     16.33952        -0.008438     -0.002516     -0.011830
Au     19.17429     14.53011     15.09131         0.021099     -0.023313      0.022735
Au     12.23370     19.00269     16.13577        -0.011234     -0.011715      0.008786
Au     13.86146     16.76426     16.94909         0.022606     -0.036905     -0.043457
Au     14.04398     19.17846     18.49210         0.005528      0.001206      0.009860
Au     14.00073     16.69475     19.91225        -0.009609      0.016323      0.002496
Au     10.87875     16.43536     16.34259         0.007362     -0.009668     -0.034640
Au     11.67525     17.79179     18.62176        -0.012364     -0.002175      0.014505
Au     18.71652     18.99103     18.06312         0.017605     -0.022532     -0.020132
Au     16.39808     18.01345     16.80086         0.004351      0.002185     -0.008485
Au     17.49883     20.56583     15.82994        -0.001967     -0.014488     -0.006056
Au     18.65601     16.51077     19.27594        -0.023022     -0.013699      0.009200
Au     16.40418     18.16033     19.77747        -0.001850     -0.011483     -0.020872
Au     19.92592     16.64936     16.80918        -0.040365     -0.029380      0.000295
Au     16.39094     20.57061     18.35007        -0.011631      0.005349     -0.013527
Au     14.67051     20.34029     15.99062         0.010241     -0.013717     -0.011918
Au     19.94359     19.10440     15.58783        -0.004604      0.022036      0.000305
