58
# total energy = -159.41176954 eVAu     10.93206     15.09665     13.17998        -0.370091     -0.233492     -0.052888
Au     12.27820     13.78484     10.97625        -0.057630     -0.089355     -0.141114
Au     13.29850     13.67715     13.82358        -0.375514      0.196997     -0.650145
Au     13.42025     11.40086     12.04564        -0.193284     -0.039000     -0.145287
Au     13.67634     15.27164      9.12158        -0.008229      0.024212     -0.082214
Au     10.80737     12.30492     12.74124        -0.021130      0.017104      0.057452
Au     18.15573     12.75584     14.34984         0.170596     -0.105841      0.136484
Au     14.67030     10.96203     14.44646         0.051978     -0.711657      0.127205
Au     17.41351     14.07852     10.99742         0.257061     -0.272017     -0.217945
Au     16.98724     15.39527     13.61909         0.914884     -0.457535     -0.568607
Au     19.55729     14.58928     12.69156        -0.130827     -0.050393      0.050242
Au     14.93434     12.95234     10.13151         0.020762      0.108165      0.030427
Au     14.71725     15.13315     11.96743        -0.357812     -0.773288     -0.650988
Au     15.90686     12.58972     12.73869         0.406751     -0.311418     -0.531170
Au     12.11760     17.45715     13.76587        -0.397364      0.276636     -0.036118
Au     13.07007     19.17385     11.88975        -0.147561      0.194808     -0.218837
Au     12.30027     16.56280     11.22609        -0.362876      0.083653     -0.470059
Au     14.17731     17.97804      9.68890        -0.002873      0.031285     -0.105315
Au     18.25444     16.76872     11.35980         0.432732     -0.032173     -0.341483
Au     16.25398     16.09119      9.61637        -0.103338     -0.001849     -0.371490
Au     15.50319     20.45819     12.02626        -0.010094     -0.047729     -0.118203
Au     14.28773     19.19616     14.39018        -0.355158      0.549539     -0.161084
Au     16.58413     20.83392     14.55603         0.087864      0.027128      0.065463
Au     18.05904     19.34347     12.45083         0.140449      0.172210     -0.020019
Au     16.81314     18.84339     10.03500        -0.093471     -0.059473     -0.013068
Au     15.54492     17.59150     12.31726         0.103610      1.048053     -0.431725
Au     19.50085     17.19509     13.78082         0.339944      0.084404     -0.050474
Au     14.57885     16.21466     14.60260        -0.662580      0.122423     -0.086042
Au     12.97645     11.86845     19.22792        -0.099320     -0.082133     -0.048282
Au     10.55919     13.27202     15.37712        -0.322950     -0.102730      0.006760
Au     11.99156     10.80220     14.71325        -0.087055     -0.193158     -0.013240
Au     13.25870     12.92432     16.36987        -0.831314     -0.875320      0.839685
Au     11.39016     14.03345     18.14952        -0.235025     -0.308896      0.011954
Au     13.97810     10.28730     17.08006        -0.017484      0.130345     -0.036465
Au     13.77964     14.41179     19.82171         0.092949      0.116866      0.015929
Au     11.99663     15.54761     15.80368        -0.529816      0.317802      0.081151
Au     11.07005     11.23979     17.29730         0.155842      0.164804     -0.024565
Au     14.43885     15.24179     17.20982        -0.510569      0.058125      0.778044
Au     19.23297     15.41329     18.24886        -0.011047      0.000362      0.085338
Au     15.45313     12.57423     18.22664         0.118427     -0.550447      0.468447
Au     19.54685     14.95544     15.46311         0.264129     -0.110778      0.130968
Au     16.60338     14.86114     19.16127         0.277472      0.015832      0.392044
Au     15.64417     13.60614     15.35643         0.731130     -0.570240     -0.238103
Au     16.98142     15.83156     16.40942         1.020319     -0.494290      0.543077
Au     16.68904     11.03578     16.23363         0.090518     -0.095889     -0.078408
Au     18.00226     13.21545     17.17830         0.243761     -0.015085      0.109999
Au     12.51872     18.25289     16.27907        -0.349387      0.328588      0.407078
Au     13.20271     19.16989     18.75029         0.181197      0.049446      0.007231
Au     12.26802     16.56828     18.53174        -0.099911      0.139409      0.124501
Au     19.28536     17.60771     16.55194         0.339253      0.012059      0.161796
Au     15.23204     17.84287     16.93720        -0.436075      0.893234      0.440272
Au     16.90536     17.94850     14.73417         0.443370      0.852128     -0.253724
Au     17.48608     19.77031     17.01647         0.155599      0.296919      0.168776
Au     14.85534     16.98583     19.68915        -0.057205      0.177777      0.204381
Au     17.52310     17.52160     18.78615         0.315985      0.060768      0.403906
Au     19.23411     19.79919     14.87972         0.039505      0.112012      0.034730
Au     15.89397     19.67175     19.25898        -0.163639      0.021877      0.096704
Au     14.72725     20.60934     16.72709         0.004545     -0.100785      0.177019
