58
# total energy = -161.22165324 eVAu     10.65108     15.26949     13.21480         0.018477      0.028092      0.023904
Au     12.20806     13.83954     11.05177        -0.022811     -0.027243      0.017022
Au     13.06219     14.07007     13.91016         0.002625     -0.009574      0.025982
Au     13.53845     11.60036     12.22010        -0.011726     -0.030717      0.010572
Au     13.64803     15.16883      9.15761        -0.006274     -0.004174      0.014933
Au     10.87464     12.39385     12.93762        -0.000810     -0.012786      0.052583
Au     18.27978     12.72376     14.49721         0.063373      0.025772     -0.052725
Au     14.98844     10.39623     14.26733         0.003024      0.016076     -0.015521
Au     17.56884     13.94507     11.00402        -0.005021     -0.015229      0.029832
Au     17.05334     15.38435     13.50393         0.028470      0.029566     -0.037303
Au     19.60960     14.51485     12.80536         0.031106     -0.001119      0.006144
Au     15.01087     12.94952     10.25516         0.035270      0.038564     -0.023106
Au     14.69469     15.11966     11.92235         0.036581      0.030555      0.025886
Au     16.35577     12.02845     12.56087         0.018134      0.008013      0.026400
Au     11.84111     17.75194     13.76836        -0.027061     -0.030648     -0.007958
Au     12.93759     19.24281     11.72521        -0.000505     -0.010032     -0.036511
Au     12.06817     16.61987     11.19451        -0.022264      0.047510     -0.004002
Au     14.15270     17.81703      9.72602         0.029899      0.037745     -0.015994
Au     18.43086     16.66556     11.24759         0.021659     -0.026105     -0.015567
Au     16.29282     15.90696      9.57348        -0.022263     -0.007000      0.029017
Au     15.47351     20.44770     11.99507        -0.035203     -0.006132     -0.004450
Au     13.71101     19.93237     14.25684         0.047545     -0.033091     -0.045614
Au     16.46509     20.69954     14.59267        -0.036844     -0.011317     -0.003264
Au     18.03119     19.22072     12.45308         0.029346      0.011994      0.004772
Au     16.78896     18.66338     10.05817        -0.016077     -0.005129     -0.049608
Au     15.40702     17.71964     12.33535         0.022168     -0.015477      0.055082
Au     19.58619     17.14215     13.79139        -0.009328      0.020839     -0.000243
Au     14.47180     16.37774     14.53101         0.022032      0.050921      0.004228
Au     13.01241     11.89047     19.02791        -0.037534     -0.017270     -0.016290
Au     10.51522     13.49738     15.44293        -0.045958      0.026021      0.007736
Au     12.29961     10.74213     14.63425        -0.023329     -0.047967     -0.022526
Au     13.31212     12.79144     16.32637         0.037096      0.029684     -0.014990
Au     11.42728     14.10671     18.01508         0.021183      0.003776      0.030356
Au     14.16209     10.26306     16.97242         0.039770     -0.027593      0.005096
Au     13.88907     14.41957     19.62876        -0.019294     -0.017441      0.025184
Au     11.11953     16.13298     15.93917         0.031229      0.023186     -0.009951
Au     11.09506     11.28223     17.09158        -0.051992      0.018645      0.022539
Au     14.31034     15.20536     16.99231        -0.012674     -0.078538     -0.018362
Au     19.31254     15.41324     18.34452         0.007848     -0.043120     -0.041313
Au     15.67702     12.34460     18.46638         0.009467     -0.026405     -0.033597
Au     19.70848     14.90602     15.58229        -0.007319     -0.005834      0.012935
Au     16.69515     14.82079     19.25294        -0.036972     -0.013524     -0.000298
Au     15.61293     13.48717     14.98651        -0.019459     -0.026842      0.029170
Au     17.03078     15.63707     16.43912         0.024601     -0.006783     -0.011779
Au     16.76763     11.09119     16.19706        -0.026203     -0.018075     -0.016395
Au     18.14340     13.14141     17.33610         0.000657      0.013990     -0.001378
Au     12.41862     18.57700     16.30738        -0.033090      0.049039     -0.013689
Au     13.27985     19.19247     18.84456        -0.013780      0.023491      0.046742
Au     12.32565     16.65737     18.43987         0.004946     -0.027018      0.026877
Au     19.34114     17.55752     16.60911        -0.005999      0.010105     -0.010718
Au     15.16289     17.80537     16.98383         0.012628      0.009630      0.012208
Au     16.89867     17.90487     14.78354         0.003021     -0.000566     -0.015853
Au     17.47893     19.72450     17.09524         0.001261      0.030566     -0.027744
Au     14.92268     16.97639     19.73782        -0.016619      0.032758     -0.000666
Au     17.63400     17.50350     18.92819        -0.025760      0.022155      0.015177
Au     19.15609     19.73166     14.90445        -0.018096     -0.006457      0.027702
Au     15.93826     19.62588     19.36105        -0.027640     -0.010233     -0.018633
Au     14.67612     20.52942     16.77811         0.034486     -0.019251     -0.002032
