58
# total energy = -160.33803715 eVAu     10.16109     13.73951     12.75560        -0.011657     -0.020427     -0.010461
Au     11.82218     14.02048     10.46423         0.021231      0.067704      0.039788
Au     12.03163     11.65903     11.99290        -0.071897      0.026361      0.051775
Au     12.47875     15.65360     12.86421         0.180291     -0.370509      0.062105
Au     16.95318     12.57733     12.26408         0.026653     -0.066704      0.007491
Au     14.29209     13.54760     12.04273        -0.321996      0.250086      0.079785
Au     16.88649     14.63580     10.31322        -0.095119      0.054771     -0.083600
Au     15.40686     12.26016      9.87820         0.061127     -0.032289     -0.064606
Au     17.68659     15.27622     12.92124         0.419563     -0.035171     -0.166250
Au     14.24964     14.76768      9.33383        -0.069028      0.038159      0.030250
Au     14.69836     10.74065     12.16286        -0.042411      0.028228     -0.082370
Au     10.11645     16.15572     11.31840        -0.029869     -0.089604     -0.022072
Au      9.85199     16.28952     14.07109        -0.098502     -0.032549     -0.010649
Au     11.41825     18.27306     12.65687        -0.057418      0.171904     -0.006231
Au     12.97664     20.17250     14.10641        -0.035689     -0.115699      0.009057
Au     12.56851     16.87718     10.25445         0.082232     -0.041142     -0.134635
Au     13.84045     19.02020     11.51211        -0.315808      0.108776     -0.282586
Au     17.75780     17.19576     10.77209        -0.052614     -0.064466     -0.024829
Au     18.81974     19.65003     11.47491        -0.099315      0.018251      0.239308
Au     15.12414     21.19126     12.61128         0.113337     -0.060195      0.122771
Au     19.18346     17.58518     13.38319        -0.001491     -0.039217      0.086072
Au     15.21091     17.38964      9.37610        -0.043655     -0.068366      0.184191
Au     16.27605     19.79373     10.34314         0.048155     -0.114206      0.067744
Au     17.70208     21.16377     13.67587         0.062983     -0.277081     -0.005002
Au     16.44762     18.61292     12.90127         0.067363      0.129288      0.202366
Au     15.11946     16.30319     11.98409        -0.016288     -0.128775     -0.098129
Au     20.31705     20.09884     13.81759        -0.245931     -0.040348     -0.051129
Au     12.30325     15.70193     15.69531         0.130661     -0.268368     -0.141865
Au     13.22850     12.44461     19.10320        -0.011673      0.113994     -0.133497
Au      9.97896     13.84606     15.62569         0.026216     -0.028571     -0.066335
Au     13.05069     10.35342     14.44202        -0.047101      0.033571     -0.067966
Au     12.68204     13.16992     14.40462         0.049780      0.366763     -0.027822
Au     10.39408     11.38559     14.30663         0.161016      0.146995     -0.022084
Au     11.38483     14.37829     18.10801        -0.043584     -0.010448      0.096258
Au     11.66451     11.84976     16.77105         0.030731      0.063142      0.053972
Au     14.20143     13.68584     16.82137         0.096148      0.091056     -0.120303
Au     19.24327     15.55384     15.28772         0.092584      0.189473     -0.037739
Au     15.86307     13.53794     19.21588        -0.096414      0.079988     -0.091905
Au     14.24600     10.76769     16.97516        -0.052166      0.171425     -0.011607
Au     13.67047     15.33037     19.44857         0.015136     -0.002349      0.030187
Au     15.37358     11.93725     14.58801         0.297341     -0.197528      0.094761
Au     15.13686     14.88662     14.44610        -0.263109     -0.130265      0.069104
Au     17.04802     14.78730     16.94051         0.172659     -0.185586      0.294874
Au     16.74972     12.00184     17.05594        -0.038284      0.017907      0.077819
Au     17.83718     13.22362     14.79100        -0.048265     -0.172425     -0.052638
Au     11.27607     18.37056     15.48950        -0.063244      0.055693      0.006094
Au      9.73903     16.34122     16.82360        -0.025572      0.041622     -0.029426
Au     11.96379     17.23257     18.14900         0.031886      0.053605      0.121862
Au     18.39390     19.31444     15.74985        -0.090716     -0.039527     -0.013918
Au     14.66016     16.53173     16.96104        -0.069359     -0.098439      0.071747
Au     16.75774     17.04777     15.18270         0.235089      0.156586     -0.171000
Au     15.62060     20.15035     15.24512         0.041917      0.176833      0.069706
Au     18.56597     17.10177     17.51334        -0.079917      0.114128     -0.047710
Au     14.04207     17.60327     14.30916         0.091930     -0.028372      0.052664
Au     14.27048     18.13492     19.35807        -0.011667     -0.106922     -0.069303
Au     13.54916     19.27463     16.84008        -0.065874      0.034943      0.051984
Au     16.44718     16.32776     19.22620        -0.089356      0.028385     -0.057569
Au     16.31958     18.86056     17.64552         0.148962      0.035910     -0.068498
