58
# total energy = -157.24361198 eVAu     10.72176     14.29092     12.66708        -1.233185      0.063294     -0.499069
Au     12.19650     15.18519     10.49115        -0.967646      0.233394     -0.585598
Au     12.73446     12.70401     11.77830        -0.129564     -0.995809     -0.470484
Au     14.04846     11.49015     13.94253         0.045401     -0.949486     -0.860907
Au     13.00188     14.18004     14.20449         0.899552      0.372603      0.276851
Au     11.34660     11.98488     14.07789        -0.824306     -0.714188     -0.450462
Au     14.15583     13.50513      9.62082         0.084556     -0.699911     -0.976006
Au     18.06807     13.21692     12.41721         0.601804     -0.825506     -0.265945
Au     19.13667     15.20394     10.74813         0.806612     -0.352091     -0.735064
Au     14.50437     14.94168     11.98419         0.304228      0.481677      0.776946
Au     16.65312     14.34651     10.18404         0.324240     -0.429518     -0.946152
Au     16.85898     11.35428     14.17416         0.580428     -0.721387     -0.314044
Au     15.94173     13.86378     14.27784        -0.465147      0.782967      0.287428
Au     19.76418     15.21702     13.40154         0.896469     -0.276132     -0.189313
Au     17.10000     15.81750     12.54069        -0.630425      0.245992      0.702019
Au     15.54216     12.36360     11.81439         0.134017     -1.075710     -0.505569
Au     12.32640     16.58061     12.87960        -0.708454      0.381305      0.016200
Au     12.57354     19.26369     12.80163        -1.089291      0.562789      0.277052
Au     12.75579     17.92890     10.46628        -1.005753      0.322965     -0.562636
Au     14.80263     20.52057     11.94183        -0.350125      1.262543     -0.070698
Au     17.18172     17.13588     10.11813         0.509118      0.133263     -1.002447
Au     17.26887     19.56276     11.44467         0.707382      0.459638     -0.788919
Au     16.82352     21.00327     13.86213        -0.286119      1.207237      0.077572
Au     19.21434     17.61615     12.00525         0.723764      0.196770     -0.487879
Au     14.64891     16.24098      9.53196         0.135445     -0.142056     -1.115430
Au     15.16938     18.98979      9.68442         0.077496      0.493511     -1.139152
Au     19.27101     19.99704     13.32723         1.008404      0.618178     -0.229435
Au     17.16159     18.27630     13.90974        -0.596214     -0.919573      0.169152
Au     14.99076     17.76522     12.07065         0.252742     -0.696822      0.757691
Au     12.92055     15.54948     16.72923        -0.196310      0.144731      0.038064
Au     11.38707     13.29192     16.42392        -1.075380      0.188075      0.713098
Au     12.57903     10.83858     16.29042        -0.761992     -0.987995      0.293650
Au     13.00371     13.51350     18.69543        -1.033291      0.137151      0.763049
Au     14.18517     15.92061     19.21581        -0.275936      0.023157      0.960321
Au     10.80186     15.63594     15.01077        -1.061357      0.576231      0.425731
Au     14.22678     12.94740     16.33875         0.178325      0.847709     -0.525571
Au     17.73447     15.91596     15.25893        -0.806404      0.191752     -0.454292
Au     14.50824     11.27130     18.41772         0.049147     -0.882028      1.036302
Au     15.65979     15.23463     16.90560        -0.336822      0.293349     -0.854587
Au     20.28729     15.31302     16.09812         1.075626     -0.276119      0.352608
Au     15.74583     13.62654     19.05267         0.913761      0.115892      1.003750
Au     15.22212     10.24740     16.05735         0.566122     -1.117894     -0.270476
Au     18.21156     14.56032     17.70930         0.381228     -0.510464      0.884061
Au     16.82013     12.30915     16.87875         1.042040     -0.554171      0.473479
Au     18.65604     13.30011     15.12726         0.609648     -0.738332      0.063998
Au     12.43887     17.91423     15.34227        -0.786866      0.460403     -0.078768
Au     13.63341     19.78800     16.98522        -0.535027      0.860699     -0.165839
Au     12.45855     17.75883     18.16785        -1.115104     -0.052378      0.415350
Au     18.43230     19.70412     15.92892         1.003183      0.613702      0.377778
Au     16.03419     18.00864     16.57155        -0.326749     -0.693356     -0.792438
Au     16.06824     20.78397     16.54164        -0.186382      1.109171      0.203227
Au     18.87003     17.33226     17.33052         0.973223      0.236150      0.678250
Au     14.74242     16.48140     14.53209         0.461182     -0.199957      0.134406
Au     14.89269     18.57195     19.03773        -0.142299      0.404789      0.935504
Au     16.83222     16.62273     18.99819         0.460994     -0.356867      0.997736
Au     17.42094     19.34844     18.48132         0.644079      0.572482      0.823756
Au     14.66688     19.41450     14.49324        -0.521208      0.346854      0.278770
Au     19.87722     17.67570     14.71422         0.997143      0.227327      0.143382
