58
# total energy = -160.34760132 eVAu     10.75390     14.89250     12.83782        -0.274161     -0.040487     -0.035121
Au     11.78045     13.20145     10.72212        -0.008305     -0.130406      0.107644
Au     13.33781     13.66576     13.03899        -0.358682     -0.135956     -0.143051
Au     12.25680     10.87104     12.29147        -0.007589      0.061923     -0.005305
Au     13.98458     14.08464      9.09668         0.046494     -0.109900      0.062042
Au     12.90120     15.74368     11.08791        -0.423162      0.096185     -0.383450
Au     18.83289     13.29806     13.60353         0.171057     -0.100004     -0.028064
Au     18.37499     13.98554     10.77817         0.107023     -0.100041     -0.058143
Au     16.63322     15.46813      9.03409        -0.003272     -0.030597     -0.165024
Au     14.35104     11.80881     10.84612        -0.020698     -0.109295     -0.153276
Au     14.73855     11.10225     13.61740         0.014677     -0.473349     -0.064825
Au     16.46749     12.66872      9.34571        -0.024234      0.036579     -0.026547
Au     17.49737     15.72674     12.93182         0.412646     -0.084470     -0.121757
Au     20.28820     15.35119     12.16603         0.022950     -0.054775      0.070282
Au     15.53389     14.42423     11.52388         0.046478     -0.219991     -0.444270
Au     16.89982     11.94437     12.14766         0.216370     -0.185657     -0.154965
Au     11.68084     17.45117     12.87720        -0.290463      0.174734     -0.076345
Au     13.93610     19.02272     13.13452        -0.255791      0.325631     -0.113391
Au     12.87733     18.47885     10.60873        -0.117869      0.139733     -0.194755
Au     15.12678     20.08567     10.75884         0.043656     -0.053093     -0.052612
Au     16.67981     18.24405     13.76036         0.127357      0.364783     -0.019259
Au     17.77912     19.47039     11.39017         0.010975      0.073658     -0.040042
Au     14.55937     16.14344     13.62304        -0.050096      0.216470     -0.053355
Au     15.92675     20.99009     13.29748         0.067628      0.020636      0.068518
Au     18.54066     16.89038     10.49365         0.227044     -0.015546     -0.120595
Au     14.20047     16.87269      8.79829         0.066495      0.022075      0.025461
Au     16.63608     18.36732      8.98203        -0.078052     -0.112635      0.158243
Au     15.58613     17.25770     11.32961        -0.066317      0.224835     -0.409341
Au     19.53309     17.91090     12.98555         0.144594      0.013015     -0.007931
Au     12.24713     15.83063     15.09386        -0.359681      0.100070      0.074011
Au     13.33772     11.84027     18.22344         0.061708      0.049788     -0.083720
Au     10.79011     12.40459     13.99019        -0.116933     -0.043466      0.028805
Au     12.38201     10.29334     15.05839         0.064309      0.161997     -0.028056
Au     13.37854     12.95955     15.63431        -0.211974     -0.447514      0.176502
Au     11.98988     14.49108     17.73564        -0.177489     -0.045529      0.102203
Au     10.01922     14.42225     15.69581        -0.114151     -0.092056     -0.044594
Au     10.92915     11.96914     16.83333         0.138010      0.186213     -0.151894
Au     14.55129     15.24818     16.57850        -0.051469     -0.008263      0.330764
Au     19.78159     15.70897     14.84932         0.158515     -0.020983      0.045503
Au     16.87492     15.11505     18.41864         0.064107      0.044688      0.136929
Au     15.91513     12.75479     17.27096         0.174546     -0.328552      0.390298
Au     14.85772     10.40728     16.31929         0.042558     -0.031390     -0.036247
Au     14.38001     14.19432     19.25942        -0.007106      0.001591     -0.039633
Au     15.88369     13.81339     14.38993         0.104064     -0.386954      0.090773
Au     17.19844     11.42392     15.02739         0.033609      0.096732     -0.045302
Au     18.33401     13.70335     16.32288         0.248918     -0.053540      0.092619
Au     12.06093     18.72887     15.26623        -0.173391      0.197589      0.079502
Au     12.51513     17.23650     17.53963         0.024004      0.115271      0.160307
Au     18.94089     18.33698     15.74856         0.153796      0.045430      0.092022
Au     14.74977     17.87955     15.74015        -0.211581      0.409378      0.279268
Au     16.72761     20.13275     16.01829         0.007707      0.114857      0.028063
Au     19.21318     16.19237     17.50117         0.026587     -0.013564      0.021457
Au     14.80446     16.90808     19.10468        -0.010777      0.112874      0.089381
Au     14.52600     19.48233     17.95416         0.044027     -0.100130     -0.091611
Au     18.62843     20.41331     13.92581        -0.139851     -0.057405      0.034020
Au     17.02116     18.00784     17.83654         0.092034      0.053611      0.225520
Au     14.04964     20.66881     15.42227         0.050079      0.023016      0.107341
Au     16.98880     16.12002     15.62198         0.339072      0.102183      0.315004
