58
# total energy = -161.20084049 eVAu     10.65445     15.25795     13.20473         0.013060      0.037156      0.035855
Au     12.20618     13.84522     11.03517        -0.026312     -0.055627      0.066535
Au     13.06127     14.06170     13.89907         0.016508     -0.001528     -0.003698
Au     13.53298     11.59378     12.21383         0.005083     -0.009277      0.001863
Au     13.65294     15.16666      9.14934         0.005851      0.032134     -0.000621
Au     10.87544     12.38615     12.92027        -0.007897      0.012230      0.046052
Au     18.27350     12.72477     14.49713         0.035493      0.019979     -0.022795
Au     14.99010     10.40937     14.27047        -0.039061      0.004352     -0.029115
Au     17.55850     13.95197     11.00113        -0.010764     -0.023136     -0.005858
Au     17.04137     15.38455     13.49995         0.038314      0.018531      0.018548
Au     19.59444     14.51875     12.80743         0.062403     -0.018657     -0.002484
Au     15.00625     12.93805     10.24441         0.030216      0.054129      0.000642
Au     14.69942     15.11765     11.90788        -0.006798     -0.037749      0.008793
Au     16.35017     12.04078     12.56038         0.006312     -0.002142      0.027012
Au     11.84514     17.73949     13.76795        -0.027583     -0.029705     -0.039575
Au     12.93949     19.24641     11.72921         0.008139     -0.002376      0.003972
Au     12.07162     16.62757     11.18854        -0.036653      0.007123      0.003794
Au     14.15352     17.82227      9.72915         0.027889      0.016215     -0.036522
Au     18.42698     16.66398     11.25246         0.019345     -0.005775     -0.049882
Au     16.29411     15.91486      9.55774        -0.009364     -0.015340      0.039263
Au     15.47956     20.44437     12.00928        -0.052007     -0.023852     -0.032186
Au     13.71584     19.92992     14.26867         0.036776     -0.035757     -0.093975
Au     16.47254     20.69927     14.59726        -0.018400      0.009069     -0.000117
Au     18.03092     19.21737     12.45911         0.039550      0.025497     -0.000973
Au     16.78911     18.66132     10.06060        -0.012839      0.011162     -0.030874
Au     15.40195     17.71041     12.33831         0.043023      0.080907     -0.015742
Au     19.59146     17.14514     13.78848        -0.023593      0.022201      0.029784
Au     14.47219     16.36913     14.52038        -0.011517      0.014827      0.111532
Au     13.01365     11.89661     19.03913        -0.040703     -0.029481     -0.016438
Au     10.51593     13.47168     15.43748        -0.037184      0.031973     -0.003791
Au     12.29818     10.76149     14.63987        -0.019560     -0.059069     -0.001109
Au     13.30839     12.81286     16.33238        -0.043721     -0.130417      0.007055
Au     11.41838     14.09838     18.01865         0.007399      0.012915      0.036643
Au     14.15264     10.27227     16.97586         0.021382     -0.008950     -0.007538
Au     13.89410     14.42091     19.63258        -0.029150     -0.011985      0.042875
Au     11.13347     16.10488     15.93667         0.038633      0.055817     -0.015794
Au     11.10048     11.27293     17.11353        -0.023569      0.031994     -0.018046
Au     14.30703     15.20693     16.99691         0.058081      0.071136     -0.046025
Au     19.31632     15.41919     18.33763        -0.005237     -0.031294      0.016191
Au     15.67465     12.34327     18.47168         0.021872     -0.022186     -0.023671
Au     19.70135     14.90730     15.58071         0.001342      0.002466      0.000314
Au     16.69388     14.81816     19.25632        -0.004172      0.013418      0.003255
Au     15.60151     13.48788     14.99512         0.069610     -0.006953     -0.008239
Au     17.02866     15.64523     16.45176         0.000373      0.027754     -0.061329
Au     16.75785     11.09690     16.20402         0.024145      0.000934      0.000210
Au     18.13960     13.15367     17.33817        -0.019359     -0.054858     -0.024723
Au     12.41813     18.56308     16.29868        -0.032635      0.033637      0.065979
Au     13.28762     19.18491     18.83604        -0.025962      0.033462      0.034723
Au     12.33095     16.64627     18.44775        -0.023475     -0.001554      0.002895
Au     19.34954     17.55903     16.61173        -0.031824      0.034339     -0.028325
Au     15.16232     17.81830     16.97757         0.010162     -0.092712     -0.007274
Au     16.89316     17.90704     14.77759         0.043279     -0.028019      0.027198
Au     17.47975     19.72798     17.09800         0.060880      0.014385     -0.058885
Au     14.92847     16.98089     19.73097        -0.022824      0.009955      0.019979
Au     17.63460     17.50790     18.93637         0.017666     -0.021240     -0.012323
Au     19.16580     19.73014     14.91120        -0.047022     -0.011451      0.019795
Au     15.94757     19.62943     19.36041        -0.069782      0.018188      0.022865
Au     14.68992     20.53588     16.78279        -0.003819      0.013207      0.004307
