58
# total energy = -161.06584097 eVAu     10.69327     15.18576     13.18035         0.101277      0.066756      0.014596
Au     12.19722     13.84665     10.98828         0.010424     -0.056265      0.047390
Au     13.12799     13.96458     13.83736        -0.074351      0.019748      0.028566
Au     13.49703     11.55589     12.13162        -0.017454      0.008877      0.114972
Au     13.65985     15.21593      9.11794         0.011002     -0.031651      0.008341
Au     10.85555     12.34548     12.85616         0.062666      0.033749      0.033389
Au     18.26665     12.74484     14.48694        -0.041520     -0.015902      0.002288
Au     14.91078     10.51606     14.28835        -0.030416     -0.021321     -0.081840
Au     17.50451     13.98461     10.96370         0.051509     -0.000161     -0.029326
Au     17.02313     15.39409     13.49280        -0.068839      0.038181      0.032460
Au     19.56359     14.54303     12.77848         0.020902     -0.035104     -0.010784
Au     14.98308     12.92030     10.16749        -0.002478      0.072426      0.061857
Au     14.70849     15.08989     11.84581         0.046161      0.057310      0.079636
Au     16.28703     12.13930     12.57802        -0.031875     -0.047896      0.011260
Au     11.88020     17.66032     13.74709        -0.023594     -0.038445     -0.062179
Au     12.94013     19.22848     11.74610         0.054015     -0.035623      0.035208
Au     12.05424     16.62883     11.10437        -0.018724      0.021937      0.167456
Au     14.16999     17.87532      9.69904         0.026462     -0.010923      0.038585
Au     18.43581     16.67134     11.21191         0.006097      0.036295      0.045151
Au     16.30336     15.96777      9.49411        -0.031552      0.013907      0.067739
Au     15.48831     20.41391     12.02457        -0.016517     -0.007067      0.024897
Au     13.79808     19.79593     14.31785         0.031948      0.008715     -0.143776
Au     16.52047     20.71780     14.61567        -0.054904     -0.014744     -0.027998
Au     18.07545     19.23841     12.45462         0.009901      0.019883      0.043532
Au     16.81159     18.69589     10.07502        -0.066498     -0.028063     -0.065385
Au     15.41529     17.68456     12.33432         0.005617     -0.031881      0.066045
Au     19.59096     17.16413     13.78486        -0.011362      0.031517     -0.016016
Au     14.44690     16.32681     14.52604         0.123384      0.035324     -0.050258
Au     12.99602     11.90291     19.13340        -0.023625     -0.003730     -0.126345
Au     10.49601     13.34843     15.41599         0.032646      0.091081      0.011509
Au     12.22186     10.79686     14.68910        -0.031977     -0.044349     -0.074136
Au     13.23189     12.85266     16.36421         0.085917      0.029837      0.038976
Au     11.33847     14.04879     18.08145         0.091301      0.039109     -0.038522
Au     14.10920     10.31841     16.99161         0.005778      0.007627      0.062555
Au     13.90100     14.42618     19.68884        -0.009991      0.012506     -0.056033
Au     11.33906     15.93422     15.90294        -0.043645      0.072031      0.006712
Au     11.08019     11.24487     17.22561         0.050993      0.046857     -0.067149
Au     14.34182     15.22131     17.04217        -0.044728     -0.034997      0.028250
Au     19.30367     15.40744     18.33751        -0.005249      0.119924      0.000770
Au     15.64764     12.33019     18.52440         0.066823      0.036297     -0.119652
Au     19.65916     14.94167     15.56301         0.047564     -0.002659      0.018885
Au     16.69296     14.83226     19.26812        -0.055574     -0.002023     -0.002559
Au     15.60744     13.49964     15.07857         0.016599     -0.004445      0.019614
Au     17.03776     15.71965     16.46731        -0.012174     -0.020361     -0.029580
Au     16.72863     11.09759     16.20623         0.042551      0.056012      0.077555
Au     18.08378     13.18861     17.32089        -0.060068     -0.147113     -0.029151
Au     12.38355     18.49690     16.30333         0.021286     -0.033045      0.066986
Au     13.28688     19.16715     18.79858         0.024742     -0.004615      0.018787
Au     12.31923     16.59602     18.50667         0.006616      0.000025     -0.075037
Au     19.36748     17.59221     16.63082        -0.001736     -0.050813     -0.009186
Au     15.16694     17.84560     16.93815         0.002968      0.008999     -0.006147
Au     16.93585     17.93183     14.76394        -0.119232     -0.054128     -0.001486
Au     17.54925     19.76090     17.14259        -0.012998      0.011399     -0.099534
Au     14.94167     17.00603     19.72280        -0.022225     -0.015945     -0.007232
Au     17.65416     17.53940     18.96091        -0.008674     -0.053647     -0.024522
Au     19.19443     19.76218     14.92515        -0.018969     -0.026806     -0.018075
Au     15.94453     19.66976     19.35508        -0.064222     -0.064179      0.019083
Au     14.75593     20.57461     16.80764        -0.031979     -0.058426     -0.021143
