58
# total energy = -156.67314469 eVAu     10.32069     13.76751     12.82518        -1.064994     -0.182961     -0.349231
Au     11.89755     14.09049     10.60605        -0.295926     -0.601264     -0.959428
Au     12.11514     11.74905     12.10533        -0.511851     -0.575126     -1.000837
Au     12.50154     15.61368     12.88794         0.807536     -0.224354      0.542240
Au     16.83951     12.63921     12.29568         1.057981     -0.343412      0.376701
Au     14.27589     13.59384     12.07386        -0.404767      0.521932      0.465798
Au     16.76706     14.64732     10.41828         1.161322      0.321847     -0.495039
Au     15.40305     12.32757     10.00308         0.012392     -0.774060     -1.300749
Au     17.52795     15.34908     12.98121         0.803830     -0.131890     -0.388813
Au     14.27220     14.79885      9.50211        -0.416193     -0.092663     -1.145835
Au     14.67615     10.87659     12.19590         0.132134     -1.157613     -0.094871
Au     10.22322     16.12068     11.37393        -0.988447      0.299703     -0.475389
Au     10.00575     16.25526     14.08467        -1.047406      0.198778     -0.105626
Au     11.53218     18.18048     12.71700        -0.543192      0.783161     -0.401147
Au     13.05822     20.09358     14.08791        -0.658992      0.747327      0.079107
Au     12.65295     16.81353     10.37766        -0.320108      0.591530     -0.820366
Au     13.95000     18.87564     11.64501        -0.898907      0.571428     -0.686242
Au     17.62344     17.23467     10.85346         0.903819     -0.606499     -0.452263
Au     18.74595     19.64103     11.56362         0.529095      0.123180     -1.148048
Au     15.18951     21.06531     12.63528        -0.374536      1.052654     -0.159917
Au     19.03449     17.63979     13.43040         0.678821     -1.081080     -0.238216
Au     15.23889     17.39307      9.50529        -0.260429      0.019172     -1.128350
Au     16.28679     19.71354     10.44516        -0.001466      0.756577     -0.919711
Au     17.69583     21.04065     13.63230        -0.389356      1.242374      0.298849
Au     16.46979     18.61530     12.92574        -0.283416     -0.658270      0.440169
Au     15.08964     16.29735     11.95287        -0.147126     -0.179174      0.935144
Au     20.13522     20.03928     13.79898         1.923739      0.655776      0.262503
Au     12.32274     15.67575     15.67074         0.834000     -0.307874     -0.406514
Au     13.26765     12.50298     19.00668        -0.465269     -0.581720      1.029367
Au     10.12632     13.86798     15.58830        -0.942014     -0.219389      0.216454
Au     13.02297     10.48899     14.45559         0.346034     -1.190382      0.002516
Au     12.66828     13.20879     14.40183         0.569845      0.915238      0.108947
Au     10.50240     11.45895     14.30448        -1.092338     -0.601942      0.067914
Au     11.51277     14.37573     17.97285        -0.731611     -0.043637      0.867355
Au     11.77434     11.92656     16.70787        -0.862888     -0.463235      0.460049
Au     14.18034     13.70079     16.80411         0.036106      0.657175     -0.795384
Au     19.08651     15.60522     15.27258         1.066959     -0.304043     -0.115686
Au     15.78069     13.58184     19.09554         0.808149     -0.291813      0.904112
Au     14.22633     10.91379     16.93146         0.197399     -1.229008      0.221161
Au     13.73457     15.30363     19.27938        -0.594201      0.198197      1.076842
Au     15.27000     12.07053     14.58474         0.687872     -0.548517     -0.009173
Au     15.14892     14.88711     14.46384        -0.465333      0.308321      0.013524
Au     16.91463     14.82204     16.88067         0.570666     -0.280032      0.278932
Au     16.60569     12.10803     17.00022         1.028759     -0.605500      0.202477
Au     17.73426     13.28547     14.78460         0.412526     -0.515702     -0.148361
Au     11.38101     18.26562     15.45987        -0.622239      0.815275      0.143968
Au      9.84636     16.30095     16.79133        -0.921264      0.273340      0.348409
Au     12.05403     17.17920     18.03459        -0.533909      0.359611      0.819371
Au     18.33963     19.25430     15.62580         0.129265      0.298302      1.184574
Au     14.63742     16.53429     16.94877        -0.063865     -0.483971     -0.844813
Au     16.74999     17.08368     15.19062        -0.705004     -0.120959     -0.532988
Au     15.63105     19.97238     15.16347        -0.015875      0.806342      0.713633
Au     18.43041     17.09592     17.41443         1.005042      0.093068      0.744071
Au     14.02152     17.60811     14.31840         0.520375     -0.872365     -0.050389
Au     14.29140     18.05019     19.26519        -0.333335      0.724467      0.860991
Au     13.60239     19.12914     16.77054        -0.229003      0.986717      0.314242
Au     16.36938     16.33122     19.11354         0.734982     -0.179963      0.863287
Au     16.29708     18.72249     17.54601         0.226613      1.126927      0.330678
