58
# total energy = -161.26770821 eVAu     10.63566     14.95375     12.87003        -0.091696      0.009990     -0.093123
Au     11.75888     13.12800     10.78842        -0.063174     -0.043905      0.010154
Au     13.24003     13.79767     13.01431        -0.051740     -0.076769     -0.074700
Au     12.33270     10.89542     12.32222         0.024715     -0.015690     -0.062546
Au     13.94236     14.05477      9.23506        -0.073587     -0.053020      0.007927
Au     12.27190     15.83654     10.72363        -0.108615     -0.031182     -0.097701
Au     18.89698     13.25445     13.61243         0.084907     -0.000268      0.017632
Au     18.43055     13.94799     10.77562        -0.019330     -0.034329     -0.029547
Au     16.70304     15.44175      8.99761        -0.063573     -0.034254      0.035807
Au     14.42209     11.71462     10.83291        -0.026943      0.033749      0.010685
Au     14.91983     10.67821     13.43219         0.006942     -0.002195      0.080986
Au     16.47342     12.69416      9.33414         0.008843      0.012958     -0.007223
Au     17.53896     15.67401     12.96607         0.048464      0.089344     -0.034489
Au     20.31225     15.29741     12.22311         0.135645     -0.004397      0.018625
Au     15.53800     14.40429     11.52256         0.014538     -0.048108     -0.014867
Au     17.01927     11.86452     12.08134        -0.018337     -0.023921      0.054489
Au     11.54592     17.55204     12.81339         0.025981      0.007323     -0.003398
Au     13.58432     19.38853     13.04960        -0.102859      0.196517     -0.027252
Au     12.80627     18.53555     10.52840         0.022395     -0.019133      0.022232
Au     15.16711     19.99322     10.78820         0.012657     -0.008341     -0.027193
Au     16.58670     18.21312     13.74176         0.033967      0.030810      0.030940
Au     17.83061     19.38867     11.39076        -0.017883      0.000029      0.010252
Au     14.49396     16.16160     13.64755        -0.052976      0.071354      0.038976
Au     15.88428     20.93239     13.34154         0.050782      0.013617      0.020022
Au     18.67399     16.81448     10.47274         0.012759      0.018219      0.032943
Au     14.22026     16.79673      8.89091        -0.019790      0.018023     -0.033856
Au     16.68211     18.25903      9.05816        -0.074161     -0.020635      0.047137
Au     15.47059     17.23269     11.35701         0.024345     -0.013454     -0.054044
Au     19.56316     17.86587     13.01546         0.037593     -0.032029      0.035423
Au     12.05500     16.02537     15.11752         0.013377      0.090355      0.033616
Au     13.44871     11.87374     18.14569         0.003386     -0.011327     -0.033417
Au     10.69389     12.39185     13.90144         0.096893      0.015030     -0.009525
Au     12.46995     10.38257     15.01065         0.020086     -0.082413      0.033344
Au     13.50970     12.91089     15.56858        -0.028247      0.035053     -0.024411
Au     11.93040     14.59542     17.66909         0.010799     -0.038815     -0.021136
Au      9.92234     14.42854     15.60874        -0.056433     -0.101555      0.026691
Au     11.05387     12.10195     16.73125         0.019257      0.080568     -0.070914
Au     14.50764     15.26954     16.54435        -0.019561      0.018081      0.007756
Au     19.83688     15.68994     14.90373         0.027214     -0.017794     -0.021227
Au     16.89319     15.12263     18.44231         0.024423     -0.055739      0.033238
Au     16.20388     12.55034     17.60564        -0.089198      0.007310     -0.064681
Au     14.96703     10.49523     16.21634         0.032287     -0.092956      0.060853
Au     14.36664     14.24061     19.17003         0.002984     -0.009455     -0.019002
Au     15.86467     13.82192     14.38565         0.048771      0.000400     -0.050111
Au     17.21274     11.50787     14.99402         0.153135     -0.130400     -0.004937
Au     18.41315     13.68749     16.35825        -0.002953     -0.059821      0.039575
Au     11.96668     18.83923     15.27647        -0.065922      0.047977     -0.011460
Au     12.57466     17.33029     17.59532        -0.027763      0.088536      0.055496
Au     19.00001     18.31538     15.80673         0.008024     -0.033640     -0.010617
Au     14.64875     17.92899     15.71187         0.023657      0.074874      0.005073
Au     16.75369     20.07849     16.09535        -0.014604      0.006543     -0.070333
Au     19.25497     16.17143     17.54519         0.069633     -0.030066      0.062730
Au     14.87400     16.94738     19.14940        -0.013211     -0.029630      0.024113
Au     14.62944     19.45827     17.97868         0.019889      0.058337      0.080176
Au     18.54981     20.31967     13.95243        -0.020474      0.020239     -0.024824
Au     17.14117     18.03185     17.97659         0.030544     -0.061864      0.015682
Au     14.07236     20.67357     15.50385        -0.046589      0.091868      0.006177
Au     17.01090     16.14805     15.69733         0.020730      0.080002      0.037783
