58
# total energy = -160.27846528 eVAu     10.43044     15.00387     13.92119         0.052803     -0.066338      0.029163
Au     12.30525     14.66658     11.88000        -0.057950     -0.042708     -0.100104
Au     12.61101     11.82656     11.31493         0.040354      0.061548      0.084948
Au     13.59909     10.23761     13.39577        -0.028764      0.126697     -0.035056
Au     14.11961     12.99728     13.83952         0.010590      0.150031     -0.000468
Au     11.33109     12.33142     13.71871         0.140064      0.107471      0.040352
Au     13.12776     15.53131     14.52139         0.091971     -0.117711     -0.011256
Au     17.12607     13.06872     13.58090         0.187881     -0.118655      0.009921
Au     18.19312     15.53854     12.66589         0.149383     -0.093919     -0.095036
Au     15.20897     15.22851     12.56111        -0.048391      0.025888     -0.025223
Au     17.01718     13.82527     10.78305        -0.097977      0.004300      0.028386
Au     14.99114     16.22964      9.82354         0.025301     -0.065204      0.016388
Au     14.27706     13.64554     10.16610         0.059322      0.036622      0.136973
Au     15.53941     11.63932     11.81706        -0.105794      0.018016      0.003086
Au     11.35468     17.65951     13.78199         0.024938      0.022684      0.078991
Au     13.15771     19.84868     13.52318         0.032622     -0.053219      0.035239
Au     13.28701     17.33078     11.83060        -0.137137      0.042999     -0.129491
Au     14.52225     19.81537     11.09253        -0.008049     -0.055497      0.088145
Au     17.88730     16.37038      9.98244        -0.148499     -0.006532      0.042988
Au     17.42687     20.25091     11.09377        -0.012588     -0.093069      0.072904
Au     14.80686     17.81790     14.42684         0.213671     -0.089969      0.018235
Au     15.99942     20.43244     13.48601        -0.051244      0.169175      0.075737
Au     19.21901     18.08191     11.80719        -0.037778     -0.001449      0.041710
Au     16.24648     18.60002      9.18024         0.016691      0.026125      0.054471
Au     18.93257     20.40740     13.41319        -0.097901     -0.081142     -0.006506
Au     17.70156     17.96925     14.34016        -0.093259     -0.090120     -0.052073
Au     20.29528     16.75011     14.06571         0.017304      0.032358      0.020117
Au     16.25436     17.75913     11.93315         0.070602     -0.035414      0.059222
Au     11.39259     13.59023     16.19716        -0.136146     -0.055175      0.074755
Au     12.99826     11.19722     15.90968         0.031781      0.051356     -0.036135
Au     12.13898     14.95159     18.56059         0.028445     -0.002935     -0.004083
Au     12.54987     12.21559     18.39425         0.080023      0.093152     -0.049806
Au     16.48098     15.44509     17.93777        -0.007068      0.049761     -0.174919
Au     14.53147     13.78996     19.55918        -0.041948      0.053608      0.033267
Au     14.39653     13.84372     16.55021        -0.037002      0.122712     -0.009827
Au     16.56812     15.40744     20.73737        -0.087962      0.064494     -0.100258
Au     17.18874     12.99352     19.26739        -0.083492      0.119300     -0.072144
Au     15.25576     11.44928     17.81751        -0.075819      0.102650     -0.104153
Au     15.76690     11.02399     15.00217        -0.024592     -0.010424     -0.015068
Au     16.31676     15.50639     15.13449        -0.048346      0.064581      0.038023
Au     19.26989     14.18139     17.81943         0.004580      0.009429      0.070593
Au     17.22617     12.88928     16.41510         0.191279     -0.260420     -0.054349
Au     19.15011     14.36351     15.02278         0.003531      0.058395      0.044860
Au     12.40974     18.90687     16.08777        -0.060210      0.047331      0.027315
Au     13.96089     16.61307     16.98703         0.081371     -0.038104     -0.075191
Au     14.11435     19.13843     18.49037         0.020568     -0.016596      0.023582
Au     14.11613     16.60364     19.89858        -0.016727      0.027004      0.046273
Au     10.97390     16.40654     16.31198        -0.002877     -0.033577     -0.014158
Au     11.78608     17.70992     18.61197         0.037633     -0.010305     -0.063152
Au     18.76070     19.02432     18.15066        -0.093531     -0.023134     -0.046927
Au     16.37296     18.09133     16.85425         0.027205     -0.136039     -0.051519
Au     17.60337     20.61349     15.86423        -0.027568     -0.021955     -0.032625
Au     18.76334     16.48503     19.40700        -0.145907     -0.012643     -0.075720
Au     16.48163     18.12580     19.78842        -0.042632      0.038112      0.096487
Au     19.00146     16.67088     16.60204         0.312453      0.012925      0.077982
Au     16.41212     20.61115     18.36891         0.032301     -0.079933     -0.011759
Au     14.75106     20.42203     15.97413         0.014835     -0.043208      0.006612
Au     20.04621     19.12273     15.62690        -0.142346      0.016671     -0.029716
