58
# total energy = -159.06379975 eVAu     10.95685     15.07281     13.18367        -0.507690      0.109272     -0.080361
Au     12.30454     13.78415     10.99793        -0.309322     -0.064604     -0.326307
Au     13.27519     13.65546     13.80625         0.033228      0.354448     -0.208695
Au     13.41571     11.43711     12.05889        -0.091679     -0.401826     -0.230654
Au     13.68972     15.27177      9.15778        -0.148818      0.011079     -0.439910
Au     10.83760     12.32008     12.75946        -0.332856     -0.144273     -0.153187
Au     18.14375     12.78499     14.35616         0.238011     -0.387480      0.017947
Au     14.65892     10.98552     14.46742         0.170489     -0.720515     -0.165236
Au     17.39742     14.09589     11.02422         0.350152     -0.371975     -0.438425
Au     17.01196     15.38145     13.61011         0.263602     -0.101144     -0.252670
Au     19.53062     14.60022     12.70474         0.190914     -0.150831     -0.105944
Au     14.91877     12.97844     10.15754         0.174487     -0.185269     -0.253409
Au     14.71328     15.11975     11.93799        -0.168702     -0.323608     -0.074233
Au     15.89281     12.61709     12.73651         0.419293     -0.522995     -0.316749
Au     12.13986     17.44815     13.76577        -0.509229      0.275629     -0.012657
Au     13.09853     19.15822     11.89140        -0.413452      0.305551     -0.162198
Au     12.33537     16.55470     11.22938        -0.630243      0.138141     -0.350263
Au     14.19518     17.96256      9.71776        -0.181681      0.191665     -0.384574
Au     18.22864     16.76431     11.38150         0.577914      0.024274     -0.468837
Au     16.23366     16.10268      9.64371         0.143778     -0.122890     -0.550741
Au     15.51105     20.42212     12.03572        -0.087839      0.342557     -0.191834
Au     14.31421     19.17892     14.38752        -0.534907      0.555625     -0.071566
Au     16.58875     20.80042     14.55500         0.018789      0.370674      0.056068
Au     18.03022     19.33089     12.46518         0.401571      0.260246     -0.165559
Au     16.79362     18.82887     10.06403         0.136128      0.116150     -0.313197
Au     15.54934     17.61352     12.29653         0.017053      0.397994     -0.055179
Au     19.47310     17.18966     13.78755         0.537664      0.118823     -0.108691
Au     14.56334     16.22842     14.61070        -0.178361     -0.115882     -0.183799
Au     12.97256     11.88327     19.18548        -0.050449     -0.217443      0.397482
Au     10.59616     13.25482     15.37074        -0.608242      0.096333      0.067318
Au     11.99791     10.84309     14.72510        -0.142305     -0.555699     -0.124876
Au     13.24264     12.89948     16.38536        -0.340266     -0.306742      0.358169
Au     11.42407     14.01709     18.14013        -0.512748     -0.041206      0.119580
Au     13.96920     10.32684     17.07464         0.064136     -0.317398      0.039430
Au     13.77469     14.41185     19.78716         0.117880      0.093731      0.367585
Au     12.01697     15.53789     15.80376        -0.575918      0.321200      0.047339
Au     11.10594     11.26379     17.28844        -0.246768     -0.129219      0.087931
Au     14.42975     15.24130     17.23979        -0.203228      0.031854      0.149976
Au     19.20990     15.41765     18.22719         0.242754     -0.048067      0.291494
Au     15.43531     12.58672     18.19481         0.276908     -0.504309      0.662907
Au     19.51265     14.95904     15.45626         0.548309     -0.118136      0.165375
Au     16.59532     14.87388     19.13070         0.272581     -0.134631      0.596627
Au     15.66509     13.59222     15.36303         0.162224     -0.187108     -0.202769
Au     17.00492     15.82251     16.42507         0.350016     -0.171591      0.157511
Au     16.66848     11.06049     16.23420         0.290933     -0.332363     -0.059615
Au     17.98430     13.23285     17.16095         0.358427     -0.198928      0.261563
Au     12.54285     18.24085     16.29045        -0.497269      0.351937      0.123649
Au     13.23753     19.15471     18.73359        -0.212227      0.205534      0.189611
Au     12.29994     16.56413     18.52042        -0.407713      0.120814      0.208896
Au     19.25736     17.59988     16.54139         0.537640      0.093678      0.227868
Au     15.22674     17.86544     16.95799        -0.192011      0.318181      0.057830
Au     16.92119     17.97487     14.73154         0.095724      0.218064     -0.117050
Au     17.46168     19.74906     16.99886         0.364274      0.436141      0.302567
Au     14.85084     16.99029     19.65285        -0.001067      0.077911      0.526783
Au     17.50261     17.51123     18.75791         0.438232      0.151411      0.581267
Au     19.20378     19.77979     14.87576         0.350973      0.286674      0.064156
Au     15.87042     19.65098     19.22162         0.096207      0.235811      0.441529
Au     14.74255     20.57603     16.74027        -0.155299      0.264728      0.000730
