58
# total energy = -161.24291458 eVAu     10.64902     15.28622     13.22909         0.019971     -0.010569     -0.008830
Au     12.20804     13.83088     11.07191        -0.002715      0.028831     -0.010401
Au     13.06310     14.07894     13.92774        -0.009401      0.021680     -0.000654
Au     13.54332     11.60440     12.22933        -0.009219     -0.021675     -0.009248
Au     13.64088     15.16959      9.16993        -0.025679     -0.017225      0.047791
Au     10.87382     12.40090     12.96487         0.007933     -0.019277      0.043422
Au     18.29526     12.72543     14.49062         0.026238      0.005058     -0.029820
Au     14.98841     10.38220     14.26238         0.016985      0.012273     -0.004630
Au     17.58132     13.93536     11.01209         0.010143     -0.003660      0.047021
Au     17.07077     15.38761     13.50257         0.005281      0.005880     -0.040878
Au     19.63026     14.51061     12.80386         0.020336      0.027694      0.006620
Au     15.02039     12.96696     10.26506         0.023652      0.014229      0.000317
Au     14.69439     15.12805     11.94349         0.021072      0.017351      0.015418
Au     16.36501     12.01456     12.56425         0.012870      0.017079      0.016931
Au     11.83322     17.76397     13.76924        -0.004014      0.014716      0.001940
Au     12.93485     19.23705     11.71482        -0.015283     -0.007091     -0.040920
Au     12.06216     16.61697     11.20111         0.001106      0.040565     -0.026729
Au     14.15494     17.81552      9.72136         0.022746      0.026405      0.002750
Au     18.43796     16.66393     11.24141         0.014063     -0.016549      0.006991
Au     16.28836     15.89685      9.59539        -0.022284     -0.002462      0.014768
Au     15.46313     20.45187     11.97823         0.002763     -0.018404      0.011119
Au     13.71051     19.93210     14.23956         0.030023     -0.037319      0.003747
Au     16.45140     20.69789     14.58655        -0.027155     -0.017667     -0.019746
Au     18.03416     19.22558     12.44633        -0.013357     -0.010112     -0.030196
Au     16.78696     18.66472     10.04923         0.000196     -0.025598     -0.004919
Au     15.41472     17.72552     12.34021         0.026301      0.005680      0.023717
Au     19.57932     17.14055     13.79366         0.014809      0.009287     -0.027901
Au     14.47489     16.39505     14.54019         0.009189      0.023023      0.001843
Au     13.00711     11.88156     19.01253        -0.012136     -0.006199     -0.037829
Au     10.50917     13.53142     15.45091        -0.045116      0.013832      0.045702
Au     12.29884     10.71386     14.62402        -0.004427     -0.017388      0.021977
Au     13.32369     12.77460     16.31644        -0.020334     -0.036379      0.011988
Au     11.44086     14.11697     18.01356         0.015816     -0.023117      0.001148
Au     14.17864     10.24809     16.96919         0.018299     -0.007130      0.010248
Au     13.88128     14.41584     19.62601         0.004598     -0.016277      0.014717
Au     11.10535     16.16864     15.94150         0.019237     -0.017855      0.024979
Au     11.08175     11.29501     17.06851        -0.025424      0.038591      0.016745
Au     14.31028     15.18924     16.98593        -0.001024     -0.014077      0.000779
Au     19.30926     15.40098     18.34634        -0.000576      0.015043     -0.051321
Au     15.68046     12.34326     18.45599        -0.020668     -0.026176     -0.030095
Au     19.71610     14.90351     15.58605         0.003110     -0.006300     -0.004426
Au     16.69149     14.82152     19.24864        -0.057377     -0.017857     -0.010372
Au     15.62141     13.48264     14.98032         0.011017     -0.018170      0.002024
Au     17.03695     15.62491     16.42443        -0.006780     -0.014243      0.032523
Au     16.77487     11.08156     16.18618        -0.003545      0.017023     -0.032428
Au     18.14889     13.13067     17.33430        -0.014548      0.010402     -0.017885
Au     12.41584     18.59979     16.31338        -0.007289      0.048624     -0.040274
Au     13.26923     19.20384     18.86047        -0.034296     -0.010032      0.010414
Au     12.32078     16.66720     18.43404         0.053846     -0.004465      0.027378
Au     19.33133     17.55574     16.60545         0.011097     -0.019384      0.024874
Au     15.16509     17.79463     16.99355        -0.010316     -0.003381      0.013908
Au     16.90404     17.90331     14.78748        -0.023447      0.018952     -0.017696
Au     17.47570     19.72411     17.09017        -0.046353      0.039957      0.013322
Au     14.91413     16.97508     19.74539        -0.017565      0.013315     -0.019424
Au     17.62887     17.50213     18.92089        -0.020243     -0.000832      0.017255
Au     19.14345     19.73312     14.89946         0.019262      0.011751      0.027418
Au     15.92559     19.61935     19.35830         0.017809     -0.004764     -0.045789
Au     14.66435     20.51839     16.77198         0.040803     -0.025603      0.000618
