58
# total energy = -160.14292990 eVAu     10.43200     15.01237     13.92096         0.020140     -0.136588      0.013326
Au     12.31410     14.67125     11.89571        -0.031909     -0.106584     -0.125829
Au     12.61373     11.82835     11.30370         0.014669      0.018915      0.213316
Au     13.60347     10.23025     13.40679        -0.065268      0.128464     -0.157323
Au     14.12593     12.98412     13.84603        -0.112723      0.352275     -0.076414
Au     11.32023     12.32580     13.72169         0.203991      0.122377     -0.021904
Au     13.12831     15.55334     14.52866         0.138436     -0.357761     -0.069437
Au     17.10396     13.09116     13.58474         0.206125     -0.250053     -0.017491
Au     18.17062     15.54049     12.68358         0.229746      0.033785     -0.211628
Au     15.21914     15.24051     12.56931        -0.193824     -0.183901     -0.064925
Au     17.02687     13.83298     10.78685        -0.177404     -0.038180     -0.021021
Au     14.99193     16.23808      9.82979        -0.000432     -0.185878     -0.008284
Au     14.26843     13.63940     10.15904         0.157497      0.146851      0.158669
Au     15.54721     11.64144     11.82026        -0.136235      0.014457     -0.033779
Au     11.36422     17.64982     13.77870        -0.057813      0.121322      0.060027
Au     13.16227     19.84442     13.52228        -0.038184      0.034168     -0.009542
Au     13.30825     17.32393     11.85195        -0.201060      0.082792     -0.212155
Au     14.52093     19.81837     11.09000         0.045132     -0.074767      0.071486
Au     17.89628     16.37053      9.98182        -0.168635      0.015307      0.073460
Au     17.43193     20.26196     11.08820        -0.067830     -0.197000      0.102897
Au     14.78570     17.81759     14.42503         0.383428     -0.099434      0.104023
Au     16.00001     20.40833     13.48760         0.005748      0.197533      0.022005
Au     19.21938     18.07965     11.80473        -0.091305      0.020390      0.068689
Au     16.24300     18.59315      9.17444         0.059062      0.081872      0.132873
Au     18.93697     20.41384     13.41306        -0.115737     -0.134701     -0.003354
Au     17.70195     17.96965     14.35156        -0.141549     -0.021612     -0.156569
Au     20.28469     16.75019     14.06721         0.068325      0.023399     -0.007962
Au     16.23983     17.74373     11.94545         0.229721      0.179894     -0.044717
Au     11.41208     13.60066     16.18609        -0.143039     -0.105384      0.111131
Au     13.00155     11.19832     15.90316        -0.012240      0.059392      0.075791
Au     12.14151     14.95949     18.55448         0.032722     -0.134808      0.022124
Au     12.54445     12.20919     18.39755         0.120103      0.152692     -0.089961
Au     16.47528     15.44351     17.94231         0.014424      0.095417     -0.176258
Au     14.54000     13.79149     19.55132        -0.103975      0.018239      0.025087
Au     14.40002     13.84080     16.54750        -0.079617      0.125227      0.003790
Au     16.57115     15.40028     20.74493        -0.063969      0.097300     -0.138695
Au     17.19283     12.98711     19.27006        -0.072661      0.117180     -0.062061
Au     15.26286     11.44448     17.82582        -0.106633      0.115798     -0.129202
Au     15.76125     11.03630     15.00076         0.070691     -0.075491      0.058985
Au     16.32186     15.49966     15.12405        -0.097632      0.175293      0.181521
Au     19.26037     14.18278     17.81185         0.050346      0.044184      0.095261
Au     17.20649     12.92129     16.41409         0.167762     -0.372115     -0.020721
Au     19.13473     14.36388     15.01654         0.136267      0.041826      0.091432
Au     12.42436     18.89739     16.08294        -0.137460      0.070194      0.047009
Au     13.95750     16.61218     16.98580         0.149381     -0.062609     -0.056387
Au     14.11328     19.13313     18.48318         0.044787      0.032125      0.050827
Au     14.11972     16.59923     19.88479         0.013092      0.025902      0.104482
Au     10.98375     16.40505     16.30899        -0.066029      0.003956      0.033349
Au     11.79045     17.70574     18.61491        -0.020064      0.038588     -0.061391
Au     18.76611     19.02302     18.15033        -0.110167     -0.011327     -0.038485
Au     16.36887     18.09578     16.85182         0.004715     -0.162515     -0.053221
Au     17.60246     20.60783     15.86553         0.003313     -0.011074     -0.044473
Au     18.77412     16.48692     19.41002        -0.183917     -0.030492     -0.101954
Au     16.48349     18.11886     19.77193        -0.028579      0.027820      0.131161
Au     18.96863     16.67384     16.58829         0.333289     -0.044017      0.186782
Au     16.40901     20.61356     18.36688         0.038957     -0.086627     -0.006939
Au     14.75186     20.41519     15.96936         0.031056      0.009186      0.036325
Au     20.05227     19.11575     15.63107        -0.147032      0.058800     -0.053749
