58
# total energy = -161.24700732 eVAu     10.64866     15.29212     13.23410         0.019266     -0.027575     -0.022997
Au     12.20768     13.82777     11.07850         0.006377      0.050341     -0.014206
Au     13.06337     14.08164     13.93414        -0.014527      0.039841     -0.021689
Au     13.54464     11.60512     12.23260        -0.004702     -0.013257     -0.019517
Au     13.63836     15.16955      9.17432        -0.033126     -0.017307      0.059202
Au     10.87358     12.40286     12.97476         0.011222     -0.017708      0.036298
Au     18.30154     12.72642     14.48743         0.002170     -0.006377     -0.013081
Au     14.98871     10.37790     14.26058         0.015527      0.008973     -0.001544
Au     17.58539     13.93197     11.01544         0.014994     -0.000227      0.047971
Au     17.07693     15.38922     13.50117        -0.003982     -0.007397     -0.033596
Au     19.63738     14.50929     12.80353         0.019914      0.039512      0.005792
Au     15.02412     12.97321     10.26782         0.017271      0.005302      0.015516
Au     14.69513     15.13171     11.95097         0.005621     -0.001473      0.008186
Au     16.36842     12.01017     12.56578         0.008370      0.019229      0.012576
Au     11.83018     17.76744     13.76959         0.007899      0.036597      0.000307
Au     12.93388     19.23495     11.71056        -0.020471     -0.002721     -0.034780
Au     12.05992     16.61702     11.20317         0.009801      0.029473     -0.036124
Au     14.15618     17.81577      9.71970         0.018707      0.016523      0.007129
Au     18.44065     16.66285     11.23934         0.010481     -0.008526      0.011541
Au     16.28645     15.89347      9.60300        -0.019457     -0.001243      0.009149
Au     15.45926     20.45325     11.97277         0.017489     -0.027714      0.013969
Au     13.71117     19.93151     14.23345         0.019372     -0.039371      0.019170
Au     16.44619     20.69704     14.58445        -0.017866     -0.017060     -0.026645
Au     18.03553     19.22729     12.44421        -0.031139     -0.018429     -0.047218
Au     16.78603     18.66497     10.04538         0.008542     -0.032598      0.019927
Au     15.41748     17.72662     12.34311         0.032563      0.033518     -0.004223
Au     19.57699     17.14035     13.79421         0.024108      0.004259     -0.035861
Au     14.47645     16.40178     14.54262        -0.004213      0.001977      0.021231
Au     13.00479     11.87841     19.00722        -0.000233     -0.002410     -0.047994
Au     10.50639     13.54300     15.45373        -0.042861      0.007648      0.062163
Au     12.29821     10.70387     14.62014         0.005137     -0.004460      0.047223
Au     13.32856     12.77050     16.31279        -0.061129     -0.098649      0.030005
Au     11.44574     14.12035     18.01350         0.009205     -0.035416     -0.011693
Au     14.18484     10.24259     16.96828         0.003795      0.006966      0.011232
Au     13.87848     14.41430     19.62540         0.014892     -0.014145      0.013934
Au     11.10113     16.18055     15.94216         0.015547     -0.033607      0.040909
Au     11.07635     11.29943     17.06150        -0.006617      0.050318      0.006767
Au     14.30964     15.18176     16.98372         0.018397      0.044558      0.003709
Au     19.30840     15.39619     18.34592        -0.007068      0.044625     -0.044928
Au     15.68167     12.34237     18.45198        -0.032942     -0.025913     -0.027041
Au     19.71844     14.90254     15.58757         0.009721     -0.004803     -0.014916
Au     16.68949     14.82137     19.24721        -0.060506     -0.015194     -0.014674
Au     15.62335     13.48059     14.97895         0.041258     -0.010524     -0.016654
Au     17.03952     15.62057     16.41972        -0.025427     -0.011515      0.045156
Au     16.77653     11.07799     16.18224         0.015612      0.037774     -0.036683
Au     18.15083     13.12779     17.33382        -0.025001     -0.004231     -0.030027
Au     12.41440     18.60816     16.31464         0.004398      0.045012     -0.038602
Au     13.26557     19.20791     18.86655        -0.046456     -0.024007     -0.009590
Au     12.31942     16.66986     18.43270         0.071493      0.011813      0.023193
Au     19.32817     17.55516     16.60418         0.015087     -0.028789      0.039163
Au     15.16605     17.79188     16.99706        -0.021416     -0.027253      0.010596
Au     16.90560     17.90296     14.78826        -0.028788      0.022896     -0.010802
Au     17.47431     19.72458     17.08825        -0.058284      0.041796      0.027738
Au     14.91109     16.97529     19.74775        -0.019987      0.000645     -0.024434
Au     17.62651     17.50229     18.91890        -0.010343     -0.019015      0.013351
Au     19.13917     19.73353     14.89832         0.032327      0.019455      0.025316
Au     15.92122     19.61687     19.35685         0.032439      0.002667     -0.052011
Au     14.66126     20.51428     16.76990         0.037542     -0.022800      0.003108
