58
# total energy = -161.29067110 eVAu     10.65897     15.30852     13.24249        -0.043151      0.024085      0.014171
Au     12.19543     13.83728     11.13065        -0.006659      0.020621     -0.014939
Au     13.05965     14.11798     13.96942        -0.002081     -0.014245      0.046849
Au     13.54600     11.61004     12.23663        -0.004092     -0.007066      0.034160
Au     13.60951     15.17080      9.22795         0.013738     -0.023469     -0.007430
Au     10.89852     12.40872     13.05296         0.007870     -0.038355      0.036157
Au     18.33576     12.73025     14.46023        -0.003029      0.033075     -0.018041
Au     14.99022     10.35733     14.24863         0.001964     -0.017576     -0.020562
Au     17.62341     13.92287     11.05441         0.007386     -0.017680      0.010299
Au     17.09871     15.39511     13.50048         0.037730      0.002069     -0.001228
Au     19.69233     14.53317     12.80624        -0.016659      0.024269     -0.002740
Au     15.05120     12.99957     10.30361        -0.012847      0.010424     -0.007818
Au     14.69170     15.14934     11.99454        -0.009388     -0.010017     -0.018495
Au     16.38188     11.99310     12.57676         0.008164     -0.009541     -0.012957
Au     11.81344     17.79690     13.76888         0.005212      0.001582     -0.019396
Au     12.91622     19.24026     11.67874         0.012225      0.009335      0.026497
Au     12.04959     16.63331     11.19457        -0.013388      0.027139      0.020351
Au     14.17149     17.81828      9.71503         0.009239      0.009419      0.028304
Au     18.46252     16.65439     11.23094         0.007425      0.007747      0.026674
Au     16.27136     15.86155      9.64835         0.005695     -0.020350     -0.007481
Au     15.45129     20.45187     11.94387         0.014403     -0.026224     -0.017598
Au     13.72320     19.90334     14.20765         0.010184      0.004576      0.010806
Au     16.43038     20.68732     14.55506         0.016214      0.001179      0.003439
Au     18.03570     19.22478     12.43178        -0.022250     -0.009997     -0.008506
Au     16.80033     18.63806     10.03153         0.022222     -0.016980      0.024879
Au     15.43882     17.73841     12.35040        -0.011312      0.023426     -0.014865
Au     19.58477     17.15813     13.78758         0.022290     -0.008173     -0.004658
Au     14.47721     16.43221     14.55943        -0.019836      0.011121      0.011601
Au     12.99470     11.85628     18.96304        -0.013665     -0.024724      0.009761
Au     10.45414     13.61117     15.48905        -0.017930      0.033694     -0.003485
Au     12.30970     10.64931     14.63943        -0.015152     -0.023484      0.006115
Au     13.33203     12.71666     16.28448         0.016921      0.033084     -0.006526
Au     11.47889     14.12881     18.01407        -0.020636     -0.014046     -0.022076
Au     14.22610     10.20970     16.96711         0.027133     -0.007957     -0.006856
Au     13.87419     14.38996     19.62790         0.014044     -0.005509      0.003655
Au     11.10060     16.22864     15.96955        -0.009463     -0.031280     -0.047635
Au     11.02558     11.34839     17.03405        -0.027315      0.020089      0.008392
Au     14.30346     15.14462     16.97140        -0.013462     -0.041780     -0.037812
Au     19.28735     15.39212     18.32591         0.009373      0.021308      0.011206
Au     15.66892     12.32084     18.41082         0.033332     -0.005489     -0.019357
Au     19.73541     14.90184     15.57898        -0.019260      0.039129      0.019708
Au     16.65283     14.80577     19.22258         0.025206     -0.005999     -0.002659
Au     15.64228     13.47647     14.95999        -0.042536     -0.002388      0.016163
Au     17.03276     15.60615     16.41268         0.004554      0.003266      0.009263
Au     16.80163     11.07881     16.13241         0.015082      0.003155     -0.002855
Au     18.14633     13.12196     17.31569        -0.016825     -0.024688     -0.031890
Au     12.40424     18.65982     16.31216        -0.008802     -0.030152     -0.012940
Au     13.22671     19.22566     18.87699         0.016075      0.016605     -0.005584
Au     12.35608     16.67647     18.42899        -0.008395      0.009538      0.010207
Au     19.31398     17.55621     16.60367        -0.002533     -0.017199      0.031010
Au     15.15221     17.75960     17.01490        -0.029674      0.015723     -0.006700
Au     16.90700     17.90165     14.80272        -0.004003      0.020259     -0.009384
Au     17.45248     19.74446     17.07566         0.010626     -0.030159      0.020721
Au     14.88840     16.97368     19.75315         0.022201     -0.022697      0.029464
Au     17.60574     17.48620     18.91816        -0.011292      0.022968     -0.015008
Au     19.12966     19.73465     14.90197         0.037163      0.046581     -0.020121
Au     15.90196     19.60599     19.32536        -0.010918     -0.006224      0.005509
Au     14.66038     20.48544     16.76421         0.002888      0.017984     -0.047758
