58
# total energy = -158.78086233 eVAu     10.49578     15.00207     13.93688        -0.347493      0.059128     -0.087884
Au     12.40614     14.62388     12.00047        -0.500819      0.261885     -0.566965
Au     12.68265     11.87729     11.38077        -0.351300     -0.280290     -0.387668
Au     13.60899     10.29026     13.40578        -0.032981     -0.293726     -0.015580
Au     14.09570     13.07048     13.84549         0.131887     -0.400918      0.010503
Au     11.39007     12.36925     13.73218        -0.359834     -0.242380     -0.070104
Au     13.20324     15.53509     14.55111        -0.306414      0.048419     -0.097205
Au     16.99395     13.16541     13.60932         0.601329     -0.399445     -0.105999
Au     18.08230     15.60111     12.72375         0.471894     -0.332505     -0.211821
Au     15.19293     15.22391     12.58325         0.123589      0.081653     -0.017324
Au     16.97130     13.90634     10.82801         0.287707     -0.390119     -0.221717
Au     15.02942     16.20410      9.91830        -0.191226      0.152797     -0.473990
Au     14.30546     13.67424     10.23395        -0.175219     -0.158010     -0.408522
Au     15.49860     11.69930     11.84198         0.230151     -0.314400     -0.122818
Au     11.45208     17.62203     13.80155        -0.478565      0.142588     -0.127841
Au     13.20207     19.79540     13.50727        -0.206109      0.254235      0.089920
Au     13.41146     17.31977     11.94807        -0.562226      0.013924     -0.516017
Au     14.57088     19.76954     11.12959        -0.251726      0.258957     -0.225860
Au     17.83385     16.40089     10.05049         0.308472     -0.147527     -0.379182
Au     17.41925     20.19827     11.11480         0.055377      0.328164     -0.154878
Au     14.81394     17.76687     14.47406        -0.054472      0.194518     -0.223511
Au     16.01665     20.25882     13.50997        -0.096000      0.809258     -0.107641
Au     19.12214     18.07600     11.84796         0.526745      0.031012     -0.235462
Au     16.25264     18.56499      9.26174        -0.043850      0.143398     -0.439618
Au     18.87944     20.35139     13.41309         0.314187      0.329083      0.000279
Au     17.63214     17.97489     14.35828         0.302978     -0.036066     -0.037977
Au     20.18653     16.78515     14.08609         0.532596     -0.179563     -0.098971
Au     16.25689     17.72687     12.01813        -0.085126      0.101022     -0.373408
Au     11.54800     13.64511     16.13436        -0.738837     -0.239949      0.282496
Au     13.05075     11.28131     15.87778        -0.251396     -0.450617      0.137208
Au     12.21439     14.95574     18.48655        -0.397255      0.018656      0.369766
Au     12.60356     12.26902     18.34655        -0.308626     -0.325184      0.276718
Au     16.43978     15.48341     17.89356         0.148529     -0.171210      0.215830
Au     14.57173     13.82736     19.45436        -0.169911     -0.201578      0.522561
Au     14.37158     13.87007     16.54390         0.145669     -0.084509     -0.013870
Au     16.55501     15.39466     20.68369         0.094221      0.024967      0.313381
Au     17.17052     13.03526     19.23260         0.125369     -0.246918      0.200827
Au     15.24272     11.51158     17.80963         0.090388     -0.345585      0.086265
Au     15.72024     11.13057     15.02662         0.233343     -0.491499     -0.125410
Au     16.32746     15.53960     15.14178        -0.114038     -0.120238     -0.069758
Au     19.15650     14.24587     17.80188         0.563543     -0.344461      0.062940
Au     17.10264     13.01950     16.40439         0.547806     -0.547553      0.018851
Au     19.05010     14.41568     15.02135         0.450507     -0.290607     -0.032015
Au     12.50005     18.81971     16.06247        -0.409098      0.421753      0.110896
Au     14.00541     16.57224     16.95481        -0.175205      0.149190      0.120229
Au     14.14428     19.07973     18.42275        -0.168967      0.291411      0.326599
Au     14.17855     16.56450     19.78103        -0.324704      0.190149      0.562364
Au     11.07161     16.39090     16.29394        -0.479080      0.077500      0.078556
Au     11.84859     17.67392     18.58345        -0.313699      0.171930      0.172379
Au     18.71087     18.99505     18.10064         0.281100      0.159798      0.268721
Au     16.33586     18.05518     16.80645         0.144678      0.153069      0.208037
Au     17.59717     20.50190     15.85005         0.033657      0.568084      0.084939
Au     18.72485     16.47727     19.34807         0.264129      0.044971      0.338280
Au     16.48937     18.04615     19.65445        -0.024551      0.397699      0.632685
Au     18.83832     16.67489     16.57280         0.702397     -0.008253      0.083548
Au     16.41082     20.54060     18.31821         0.001295      0.383854      0.258519
Au     14.79340     20.31839     15.94991        -0.217899      0.528994      0.094272
Au     19.97304     19.06862     15.62513         0.423085      0.251046      0.021443
