58
# total energy = -160.49620295 eVAu     10.85079     15.08520     13.16641        -0.032627     -0.006473     -0.051076
Au     12.24225     13.77114     10.93261         0.027274      0.006753      0.011231
Au     13.25900     13.70462     13.79451        -0.050791     -0.000404      0.113248
Au     13.39654     11.37062     12.02348        -0.045898      0.191048      0.109179
Au     13.66383     15.27674      9.08085        -0.001108      0.004590      0.091127
Au     10.78513     12.29485     12.74187         0.143731      0.051521      0.119875
Au     18.20382     12.70988     14.36820         0.040997      0.050302      0.112011
Au     14.68750     10.83861     14.42916         0.034608     -0.156961     -0.098637
Au     17.46930     14.03236     10.92619         0.048816      0.037186     -0.109220
Au     17.06869     15.36799     13.55149        -0.139166      0.123076     -0.017158
Au     19.56901     14.57100     12.68991        -0.040345      0.003023      0.065287
Au     14.94893     12.94419     10.10624        -0.058395      0.076771      0.015018
Au     14.69971     15.08370     11.88894         0.105561      0.147266     -0.078395
Au     15.97452     12.49306     12.66854         0.120325     -0.246203     -0.059273
Au     12.03008     17.50984     13.75384        -0.146259      0.040630     -0.038044
Au     13.01981     19.21124     11.84722        -0.011319     -0.041388     -0.141605
Au     12.20934     16.58592     11.15419        -0.146932      0.005396     -0.053424
Au     14.16165     17.99121      9.65367         0.037899     -0.087529      0.074488
Au     18.33876     16.76774     11.28138         0.079626     -0.016221     -0.101638
Au     16.25939     16.07856      9.54638         0.002310      0.001858      0.015761
Au     15.49765     20.48576     12.00054         0.050435     -0.108603      0.015158
Au     14.20088     19.29949     14.36851        -0.206269      0.197611     -0.043293
Au     16.59270     20.86431     14.56797         0.008875     -0.148956      0.033944
Au     18.10726     19.38014     12.42934        -0.013430     -0.033271     -0.008070
Au     16.81714     18.84059     10.00953        -0.039427     -0.117336      0.084408
Au     15.54619     17.68145     12.27534        -0.060958     -0.131042      0.017319
Au     19.57644     17.21141     13.76983        -0.003161     -0.003863     -0.001340
Au     14.52928     16.21796     14.57927         0.144372      0.004738     -0.081653
Au     12.96568     11.84785     19.25923        -0.025627      0.094991     -0.123624
Au     10.48020     13.27184     15.37946         0.011866     -0.069393     -0.022841
Au     11.97655     10.74235     14.69600         0.041955      0.073741      0.006963
Au     13.18561     12.84612     16.43900         0.111698      0.091827     -0.104170
Au     11.32149     14.00956     18.16348         0.012005     -0.025149     -0.000715
Au     13.98784     10.27053     17.08149         0.052403      0.103607     -0.004069
Au     13.79857     14.42408     19.85464         0.052063     -0.011820     -0.117545
Au     11.88867     15.60080     15.82030        -0.226537      0.121394      0.067195
Au     11.05510     11.23873     17.30105         0.055063      0.051438     -0.052001
Au     14.39607     15.24485     17.26478         0.082310     -0.030205     -0.151156
Au     19.25794     15.41203     18.28815        -0.041971      0.028722     -0.004430
Au     15.49640     12.48035     18.32622         0.125556     -0.111592      0.129752
Au     19.62611     14.93620     15.48425         0.037817      0.003281      0.043685
Au     16.64660     14.85049     19.24845        -0.022539      0.002364      0.031199
Au     15.68408     13.54161     15.33342        -0.177974     -0.053409      0.018001
Au     17.06664     15.79995     16.46193        -0.129220      0.123043     -0.000074
Au     16.72215     11.00589     16.22543        -0.050655      0.083221     -0.029040
Au     18.05083     13.18380     17.21580         0.001787      0.012108      0.068438
Au     12.43716     18.31781     16.31950        -0.094254      0.097469     -0.018838
Au     13.20582     19.19352     18.77371         0.161667     -0.030675      0.030809
Au     12.22167     16.58736     18.56436         0.055536     -0.043461      0.016700
Au     19.35984     17.62136     16.58329         0.011472      0.000856      0.023916
Au     15.19746     17.92100     16.96966         0.093440     -0.129961     -0.048420
Au     16.94442     18.01860     14.71983        -0.032436     -0.092459      0.085694
Au     17.53165     19.82887     17.06292         0.014455     -0.018529      0.089396
Au     14.85634     17.01092     19.74887         0.036322      0.035239     -0.067136
Au     17.58408     17.54712     18.87187         0.035105      0.045283      0.054790
Au     19.26531     19.82951     14.89311        -0.092370     -0.063996      0.040522
Au     15.89253     19.68681     19.30435        -0.031375     -0.088936     -0.059342
Au     14.71694     20.63074     16.74597         0.083692     -0.042516      0.101116
