58
# total energy = -161.42861388 eVAu     10.58431     14.97940     12.84272         0.055912      0.019693      0.000708
Au     11.70152     13.09780     10.79300        -0.036292      0.017939      0.056735
Au     13.21513     13.81213     12.96969         0.010473      0.014022     -0.004699
Au     12.36766     10.86778     12.31693         0.044700     -0.027756     -0.004689
Au     13.88341     14.03675      9.27021        -0.014416      0.007812      0.040133
Au     12.09284     15.84656     10.60174        -0.002829     -0.050292      0.028803
Au     18.93658     13.25962     13.62261        -0.003798      0.004543     -0.003175
Au     18.43784     13.94049     10.78971         0.012832      0.001748      0.042599
Au     16.68072     15.42417      9.02817        -0.021264      0.047177      0.039484
Au     14.44040     11.72194     10.84740        -0.031723     -0.029215      0.068445
Au     14.95469     10.61292     13.45022        -0.007062      0.066636     -0.026749
Au     16.47143     12.69482      9.33307         0.009759      0.001126      0.044828
Au     17.56820     15.69563     12.95732        -0.016127     -0.018675      0.084804
Au     20.37931     15.27773     12.23101        -0.049497      0.008070      0.009717
Au     15.54585     14.38172     11.54046         0.030746      0.004168      0.012400
Au     17.03004     11.85728     12.11160         0.006886      0.009206      0.014417
Au     11.55523     17.56310     12.79648         0.047759     -0.024011      0.048452
Au     13.45057     19.58820     13.01692        -0.111767      0.165975     -0.040534
Au     12.81635     18.51408     10.54288         0.065388     -0.002410      0.014828
Au     15.17292     19.97300     10.79581        -0.041450     -0.024786      0.072520
Au     16.57461     18.20990     13.74647        -0.013284     -0.069503      0.034263
Au     17.83457     19.36082     11.40204        -0.006577     -0.009147     -0.010639
Au     14.43666     16.18229     13.66613         0.035857     -0.031817      0.062487
Au     15.88131     20.92132     13.35235        -0.048711     -0.005258      0.010237
Au     18.69569     16.79985     10.49797        -0.015610     -0.002366     -0.040980
Au     14.19416     16.77405      8.89640        -0.032835     -0.046149      0.008334
Au     16.65978     18.22899      9.08635        -0.020738     -0.019662      0.019382
Au     15.45810     17.19867     11.37096         0.008734     -0.013611      0.002361
Au     19.58395     17.84157     13.04145         0.037547      0.002124     -0.008598
Au     11.99843     16.08982     15.13846        -0.077497      0.054569      0.023909
Au     13.46540     11.86829     18.10142        -0.017322      0.018956     -0.018658
Au     10.74541     12.40460     13.86324         0.052055      0.045934     -0.012413
Au     12.50928     10.35857     15.01728         0.034431      0.061957      0.021123
Au     13.54637     12.92795     15.52614         0.047450     -0.041615     -0.056736
Au     11.93987     14.62137     17.63360         0.021480      0.058876     -0.000054
Au      9.89819     14.41245     15.58633         0.019730     -0.002153     -0.052618
Au     11.09138     12.14152     16.67833        -0.003089     -0.029169     -0.043632
Au     14.50344     15.30153     16.51867        -0.046278      0.011234     -0.010932
Au     19.84436     15.66826     14.91937         0.007243     -0.025078     -0.015773
Au     16.91185     15.09133     18.45055        -0.008431      0.010213      0.012538
Au     16.20498     12.53011     17.60719        -0.035725      0.030538     -0.067341
Au     15.01343     10.47219     16.21913         0.039259     -0.036712     -0.005879
Au     14.36323     14.24308     19.14175        -0.009233     -0.055855     -0.062238
Au     15.90821     13.82769     14.36314         0.062885      0.028121      0.027943
Au     17.28732     11.46318     14.98491        -0.066214      0.015135      0.019641
Au     18.40923     13.66592     16.37352         0.021062      0.012109     -0.030929
Au     11.93119     18.88847     15.26679         0.053786     -0.009707     -0.022548
Au     12.57617     17.39721     17.62445         0.014623     -0.001912     -0.063161
Au     19.00893     18.28823     15.81034        -0.005988      0.007313      0.011977
Au     14.63306     17.97957     15.71968        -0.040653     -0.004513     -0.026075
Au     16.74352     20.05342     16.08125        -0.007564     -0.018990     -0.003751
Au     19.29830     16.14087     17.57728        -0.034028     -0.020058     -0.033172
Au     14.88560     16.93520     19.15897        -0.002188      0.020160     -0.065934
Au     14.67204     19.48128     18.01773         0.033966     -0.018918     -0.020780
Au     18.54593     20.30857     13.94267         0.005364     -0.045495      0.043701
Au     17.17344     17.99973     17.99938        -0.020758      0.006781     -0.025153
Au     14.04555     20.71814     15.52276         0.026174     -0.023993      0.011565
Au     17.01334     16.16883     15.72723         0.042845     -0.043310     -0.110493
