58
# total energy = -161.09204372 eVAu     10.65355     14.91992     12.84903        -0.026264      0.088856      0.036870
Au     11.77866     13.14366     10.78387        -0.125434     -0.011522     -0.126854
Au     13.27358     13.73720     13.01787        -0.041835      0.027603      0.132505
Au     12.28602     10.91038     12.30814         0.065039     -0.129599      0.047945
Au     13.97698     14.04937      9.17949        -0.103334      0.036747      0.008564
Au     12.49711     15.80609     10.85614        -0.176873      0.039578     -0.177519
Au     18.89201     13.25301     13.60781         0.011645      0.022575     -0.020373
Au     18.41121     13.93832     10.75229         0.191197      0.140730      0.158262
Au     16.68257     15.44851      8.98108        -0.007681      0.049706      0.033891
Au     14.38250     11.73210     10.81639         0.100799      0.002298      0.009368
Au     14.85848     10.80326     13.48242         0.003587     -0.071632      0.027702
Au     16.48251     12.69818      9.33917        -0.117376     -0.157818     -0.094801
Au     17.54500     15.68988     12.94162        -0.085718      0.011711      0.042767
Au     20.29261     15.31863     12.21385         0.075155     -0.092068     -0.113009
Au     15.52989     14.40777     11.49997         0.060755      0.047962      0.059447
Au     16.99096     11.86443     12.08553         0.007483      0.013148      0.044809
Au     11.56443     17.52652     12.83097        -0.017157      0.006060     -0.004753
Au     13.70134     19.24539     13.07593        -0.027131      0.206075     -0.025354
Au     12.81444     18.54170     10.53258        -0.002417     -0.048046      0.023991
Au     15.15828     20.02886     10.77266        -0.040344      0.024718     -0.002012
Au     16.63399     18.24871     13.75201        -0.039189     -0.088019     -0.047457
Au     17.80794     19.43879     11.38017         0.069921     -0.057180      0.030857
Au     14.55047     16.15828     13.63691        -0.077075      0.002969     -0.169531
Au     15.91452     20.96899     13.32521        -0.083157     -0.026398      0.021365
Au     18.64964     16.84918     10.45657        -0.005691     -0.053861      0.045129
Au     14.22076     16.83420      8.84560        -0.027357     -0.053503      0.020481
Au     16.66231     18.29937      9.03850         0.026534     -0.032580     -0.064240
Au     15.51359     17.25996     11.31710        -0.051691     -0.122688      0.183763
Au     19.56966     17.89248     12.98934        -0.015604      0.005706      0.075372
Au     12.12191     15.97120     15.10913        -0.163245     -0.058685      0.052087
Au     13.39964     11.86441     18.17069         0.091473     -0.017104      0.086426
Au     10.70321     12.39593     13.94063         0.070533     -0.061086     -0.021296
Au     12.43061     10.35154     15.01897         0.040432      0.059069      0.009575
Au     13.46149     12.91360     15.62486        -0.074611     -0.068872     -0.247347
Au     11.92798     14.53685     17.72668         0.027160      0.117807     -0.105969
Au      9.92649     14.39503     15.64201         0.088649      0.138538     -0.022767
Au     11.00651     12.06915     16.77664         0.013807     -0.012323     -0.114335
Au     14.52080     15.24243     16.57310        -0.014763      0.097558      0.038181
Au     19.84492     15.69250     14.88424        -0.054034      0.020933      0.084991
Au     16.88902     15.13141     18.45013         0.028001     -0.054517      0.008872
Au     16.12797     12.60162     17.51932        -0.059316     -0.034816      0.030806
Au     14.91974     10.44850     16.25727         0.088497      0.031805     -0.031597
Au     14.37539     14.23364     19.20541        -0.030455     -0.082699     -0.012109
Au     15.83640     13.79806     14.40206         0.138174      0.042295     -0.092746
Au     17.20067     11.50058     15.00278         0.065431     -0.155656      0.012466
Au     18.40979     13.67812     16.35690         0.020055      0.048166      0.006027
Au     11.99451     18.81434     15.28049        -0.081980      0.017666      0.004073
Au     12.55250     17.29541     17.58625        -0.010633      0.047782      0.016602
Au     18.99863     18.34094     15.80329        -0.017469     -0.058764     -0.050284
Au     14.68007     17.89999     15.70998        -0.048991      0.257225      0.207570
Au     16.74226     20.11907     16.08098         0.018564     -0.036489     -0.027501
Au     19.23206     16.18140     17.52412         0.091477     -0.018640      0.041196
Au     14.84172     16.93956     19.14067         0.034663      0.056293      0.026248
Au     14.58586     19.47346     17.97837         0.047862     -0.072995     -0.065842
Au     18.56497     20.35018     13.94400         0.056381      0.009198      0.014688
Au     17.09750     18.04234     17.94328         0.037492     -0.049594      0.034086
Au     14.07067     20.66970     15.48257        -0.011038      0.040303      0.000655
Au     17.01297     16.14589     15.68659         0.067099      0.016078     -0.039939
