58
# total energy = -161.13723557 eVAu     10.34769     15.03590     13.97043        -0.021603      0.020086      0.005964
Au     12.15002     14.73105     11.81890         0.018629     -0.002782     -0.063966
Au     12.57669     11.94174     11.29535         0.056462      0.003160     -0.046438
Au     13.57063     10.44260     13.37940        -0.010830     -0.048118     -0.041372
Au     14.50571     13.15181     14.04497        -0.046678      0.042629     -0.000063
Au     11.56516     12.54564     13.76018         0.027182      0.002063     -0.009822
Au     13.05456     15.51826     14.49844        -0.006332     -0.023915      0.007530
Au     17.53941     12.89921     13.54546         0.006764     -0.043658      0.003774
Au     18.86436     15.17934     12.41391         0.041202     -0.007213     -0.014518
Au     15.03051     15.38015     12.45137         0.005435     -0.002463      0.094438
Au     17.02067     13.81036     10.92243         0.019188      0.002956     -0.040071
Au     14.85140     16.30750      9.79900         0.006848      0.098408      0.019914
Au     14.33122     13.70106     10.24639        -0.062932     -0.048413      0.016755
Au     15.55781     11.69949     11.92085         0.026630     -0.023416     -0.020238
Au     11.28661     17.67970     13.82987        -0.012299     -0.005291      0.031385
Au     13.16094     19.72259     13.59990        -0.003793      0.026388      0.001911
Au     13.02157     17.39752     11.68573        -0.052160      0.029780      0.014145
Au     14.46052     19.75342     11.17524        -0.002835     -0.020059     -0.024617
Au     17.71692     16.31353     10.07583         0.003554      0.063873     -0.017636
Au     17.30790     20.26819     11.12423         0.003026     -0.019577      0.008830
Au     14.92588     17.68531     14.42895        -0.077226      0.009270      0.043198
Au     15.87138     20.59875     13.52644         0.010376     -0.015118      0.005764
Au     19.17381     17.94361     11.85060         0.013165     -0.009886     -0.043619
Au     16.18955     18.61084      9.21851         0.014411     -0.030212      0.035483
Au     18.72070     20.18652     13.42707        -0.020763      0.018462     -0.035411
Au     17.77733     17.45269     14.43504         0.046635     -0.001232     -0.010884
Au     20.45707     16.79831     14.07998         0.074710     -0.042237     -0.046270
Au     16.30517     17.79863     12.03646         0.029770      0.039732     -0.030024
Au     11.23165     13.60506     16.28129        -0.022603      0.022540      0.031110
Au     13.07611     11.33058     15.88727        -0.035163     -0.015949      0.025966
Au     12.06943     15.03139     18.57502        -0.011387     -0.009249     -0.006836
Au     12.57419     12.26019     18.38432         0.004690      0.029186      0.034408
Au     16.46078     15.40861     17.72061         0.010095     -0.014650      0.066645
Au     14.42590     13.88581     19.61078        -0.020045     -0.056120      0.017011
Au     14.19285     13.98326     16.69993         0.049599      0.058469     -0.004349
Au     16.45316     15.46939     20.57529         0.055451      0.042320      0.009693
Au     17.05862     13.04609     19.15095        -0.012213     -0.006977     -0.029729
Au     15.30576     11.52201     17.60786        -0.003378      0.004381      0.003858
Au     15.91128     10.91465     14.87069         0.034601      0.001937      0.016329
Au     16.21539     15.21635     14.98980        -0.000913     -0.043984      0.017534
Au     19.19397     14.20858     17.84556         0.037047     -0.036182      0.004935
Au     17.61404     12.50637     16.34530        -0.039726      0.040038      0.011512
Au     19.14386     14.55081     15.10865         0.027922     -0.034590      0.012748
Au     12.26076     18.98285     16.13595        -0.026279     -0.000499     -0.008208
Au     13.90431     16.74549     16.93730        -0.036856      0.009324      0.019854
Au     14.03979     19.18004     18.49004         0.025055     -0.011152      0.007279
Au     13.98932     16.69798     19.91859        -0.006645      0.018811     -0.011979
Au     10.91515     16.44271     16.33717        -0.027215     -0.048579     -0.054692
Au     11.67689     17.78884     18.62225         0.020040      0.002509      0.027760
Au     18.74397     18.97797     18.08135        -0.023274      0.045683      0.018976
Au     16.41162     18.02571     16.82935        -0.019709      0.003707     -0.037837
Au     17.50674     20.57336     15.85441        -0.032072      0.011957     -0.054707
Au     18.64951     16.51057     19.28027        -0.047583     -0.026066      0.047088
Au     16.39216     18.15685     19.78112         0.026593     -0.013444      0.031323
Au     19.99020     16.65498     16.84441        -0.076964     -0.022283     -0.030380
Au     16.40426     20.55937     18.36749        -0.024919      0.019968      0.002801
Au     14.67717     20.35624     16.00252         0.029273     -0.013847     -0.018988
Au     19.92360     19.11153     15.59897         0.060041      0.029522      0.006733
