58
# total energy = -161.62248301 eVAu     10.63172     15.07816     12.89892         0.022180      0.014124     -0.003236
Au     11.56128     13.06999     10.93317         0.000939      0.014661      0.000191
Au     13.27826     13.78412     12.91916         0.008908      0.001291     -0.020733
Au     12.38399     10.75160     12.33189         0.024267      0.038966     -0.021950
Au     13.80497     13.94935      9.44208         0.006508     -0.014765     -0.019541
Au     12.10532     15.84090     10.68343        -0.028042     -0.000318     -0.001024
Au     19.00613     13.24021     13.61106         0.002574     -0.014953      0.003225
Au     18.47693     13.92722     10.80274        -0.002108     -0.000999      0.000699
Au     16.67752     15.41870      9.07511        -0.000963     -0.008025      0.005246
Au     14.46864     11.66020     10.92484        -0.021456     -0.013496      0.004376
Au     14.99346     10.59598     13.47154         0.014837     -0.016866     -0.016074
Au     16.45499     12.69013      9.39544         0.032663     -0.003060     -0.012070
Au     17.65338     15.70669     12.97341        -0.010211      0.029236      0.015491
Au     20.42720     15.28521     12.20625         0.011353      0.003375     -0.001474
Au     15.64144     14.35646     11.59549        -0.033912      0.002616     -0.007069
Au     17.09589     11.81428     12.13268        -0.003887      0.008924      0.003594
Au     11.63923     17.66736     12.80913        -0.007771     -0.027264      0.031839
Au     13.20503     19.99890     12.92777         0.011693     -0.026489     -0.002865
Au     12.86208     18.52257     10.53748         0.011698     -0.015893      0.010033
Au     15.15029     19.98024     10.88803         0.005381      0.006939     -0.015682
Au     16.54648     18.15852     13.75862        -0.003235     -0.005796      0.001316
Au     17.80374     19.31350     11.41720         0.023683     -0.000380      0.020607
Au     14.40311     16.12166     13.75408        -0.040402     -0.058919     -0.052304
Au     15.83737     20.88746     13.40928         0.029727      0.017604     -0.000450
Au     18.69998     16.79520     10.48016        -0.002387      0.001682     -0.009810
Au     14.14406     16.65701      8.92493         0.008245      0.009153      0.000585
Au     16.54228     18.20127      9.16129         0.018699     -0.005014     -0.017675
Au     15.35957     17.15018     11.43553        -0.032532      0.003265      0.004383
Au     19.63360     17.83854     13.02713        -0.001947      0.003498      0.007133
Au     11.75114     16.31145     15.20933        -0.063027     -0.012809     -0.001473
Au     13.44431     11.80864     17.98694         0.035347     -0.024111      0.003037
Au     10.79023     12.44033     13.75530         0.009609      0.007113      0.029931
Au     12.55722     10.36506     15.04478         0.026146     -0.000306      0.007234
Au     13.70928     12.87456     15.44042         0.012375      0.006123      0.027082
Au     11.89149     14.71069     17.56450        -0.010554      0.001814     -0.003387
Au      9.84462     14.39667     15.51323         0.016490      0.015381      0.007664
Au     11.13480     12.21569     16.55163        -0.004277      0.015656      0.009000
Au     14.44036     15.32383     16.46515        -0.006442     -0.018734     -0.013412
Au     19.92060     15.65214     14.90600        -0.009694      0.013618      0.013945
Au     16.89622     15.06394     18.42351         0.009568      0.002379     -0.002414
Au     16.17666     12.55575     17.46337         0.007372      0.002432      0.014040
Au     15.09320     10.35214     16.21911         0.000988     -0.013235      0.018062
Au     14.32049     14.18577     19.02423        -0.003328     -0.026761      0.004000
Au     16.05784     13.84438     14.38259         0.004522     -0.002883     -0.009796
Au     17.34721     11.41706     14.98397        -0.010232     -0.000851     -0.016131
Au     18.47020     13.65080     16.34541        -0.021865      0.005728      0.000485
Au     11.93747     19.05689     15.23613        -0.009831      0.038005      0.003488
Au     12.53250     17.51051     17.60029         0.001457      0.018584      0.008103
Au     19.02561     18.25432     15.80545        -0.001340     -0.006633      0.005922
Au     14.58483     18.00602     15.69691        -0.022522      0.075284      0.035629
Au     16.74600     20.01411     16.10173        -0.001526      0.004520     -0.020691
Au     19.29905     16.10486     17.55939        -0.003159     -0.014101     -0.007644
Au     14.84607     16.89039     19.03467        -0.003870     -0.017219      0.026842
Au     14.68491     19.48775     18.02281         0.015032     -0.004806     -0.038269
Au     18.51250     20.25048     13.94728        -0.001753      0.004480      0.004263
Au     17.18207     17.97505     17.99652        -0.004099     -0.011396     -0.004188
Au     14.06252     20.77622     15.55158         0.023368     -0.006371      0.000021
Au     17.02397     16.15289     15.72955        -0.029255      0.005999     -0.008103
