58
# total energy = -161.27365814 eVAu     10.09761     13.77345     12.72429         0.011013     -0.032892      0.048761
Au     11.70750     14.05233     10.39557        -0.003724      0.027867     -0.007893
Au     11.96944     11.72351     11.96086         0.054423      0.014056     -0.014745
Au     12.49612     15.66461     12.84470        -0.016500      0.066453      0.028265
Au     16.88051     12.63545     12.28276        -0.049144     -0.035342     -0.029833
Au     14.15997     13.62701     11.91903         0.051891      0.032095     -0.018677
Au     16.77971     14.67380     10.26417        -0.064966     -0.014463      0.018718
Au     15.42353     12.28132      9.81475        -0.015102      0.046769      0.017224
Au     18.33606     14.99554     12.63490        -0.064119      0.077386      0.104298
Au     14.11866     14.71749      9.23007         0.042554      0.003159      0.003106
Au     14.66036     10.85053     12.07748         0.059380      0.001147      0.021695
Au     10.06632     16.15052     11.29216         0.004740      0.085790      0.012203
Au      9.82133     16.29416     14.03949         0.010461      0.076148     -0.007182
Au     11.37352     18.28276     12.62492        -0.042952     -0.047867     -0.040049
Au     12.96033     20.04625     14.08085         0.067706      0.018486     -0.050975
Au     12.50945     16.86905     10.18793        -0.024739     -0.002534      0.023185
Au     13.51464     19.27668     11.18039         0.092954     -0.039735      0.086808
Au     17.74445     17.15245     10.86460         0.012629      0.007316      0.005063
Au     18.70830     19.61855     11.61075        -0.007837      0.006672     -0.033621
Au     15.08763     21.07396     12.65818        -0.105984      0.006022     -0.036120
Au     19.22642     17.52136     13.40168         0.033267     -0.108403     -0.011340
Au     15.15224     17.28662      9.50281         0.043067     -0.002628     -0.018271
Au     16.19601     19.63975     10.48229        -0.023199     -0.064163     -0.019011
Au     17.63964     21.10023     13.74772         0.020194      0.140392      0.000031
Au     16.37574     18.59746     13.10490        -0.026100      0.000020      0.039038
Au     15.25185     16.24393     12.08230        -0.055314      0.033954      0.117519
Au     20.24303     20.08111     13.86589        -0.018500      0.017484      0.025181
Au     12.33220     15.64853     15.73634         0.026574      0.095962      0.054575
Au     13.17622     12.60513     19.04851         0.006952      0.003946      0.024677
Au      9.94565     13.91694     15.60069        -0.009467     -0.068693     -0.008159
Au     13.11518     10.47824     14.36419         0.059181     -0.027251      0.014465
Au     12.76811     13.25444     14.39727         0.010232     -0.017121     -0.034359
Au     10.49572     11.49536     14.31510        -0.039197      0.024725      0.030406
Au     11.24510     14.47549     18.19894         0.017222      0.030830     -0.018259
Au     11.62211     12.01057     16.80722        -0.000003      0.011038     -0.021850
Au     14.35776     13.72924     16.77726        -0.088408      0.050870     -0.010832
Au     19.34572     15.53633     15.29056        -0.033693     -0.039006     -0.023707
Au     15.80104     13.62480     19.21468         0.064002      0.036865     -0.046280
Au     14.18845     10.92977     16.92431         0.029092     -0.053611     -0.029713
Au     13.59893     15.40244     19.48366         0.022035     -0.088888     -0.039920
Au     15.79428     11.34889     14.58100        -0.024515     -0.064771     -0.004029
Au     15.14665     14.78443     14.40444         0.034031      0.046630     -0.046678
Au     17.68041     14.57904     17.33534         0.106032     -0.067005      0.093298
Au     16.74301     12.01855     17.10012        -0.061693      0.035022     -0.016607
Au     17.75800     13.29109     14.81123         0.006078      0.070510      0.045811
Au     11.25309     18.32730     15.46848        -0.003726     -0.059078      0.028152
Au      9.68874     16.38597     16.80273         0.070874      0.063021      0.006230
Au     11.92496     17.28097     18.16503        -0.112284     -0.021103     -0.128693
Au     18.31357     19.30661     15.76074        -0.070550      0.023131     -0.048857
Au     14.75619     16.47787     16.95913        -0.047169     -0.018320     -0.129254
Au     16.88348     16.82653     15.13162        -0.082717     -0.092051      0.043872
Au     15.52607     20.43808     15.40166        -0.040930     -0.089998     -0.022795
Au     18.51631     17.18631     17.48317         0.014722     -0.050855      0.007290
Au     14.09831     17.52146     14.38443         0.024528     -0.077692      0.039595
Au     14.26876     18.11729     19.30553         0.034043      0.075791      0.023869
Au     13.48807     19.27511     16.84171         0.018367     -0.006343     -0.034025
Au     16.43861     16.35356     19.18488         0.095820     -0.026992      0.018863
Au     16.28862     18.92781     17.61658        -0.011534     -0.012748     -0.030465
