58
# total energy = -161.35628721 eVAu     10.60980     14.96805     12.85603        -0.023896      0.002529     -0.010463
Au     11.73777     13.11368     10.79083        -0.086649     -0.020194      0.001728
Au     13.21705     13.79975     12.99835         0.069434      0.046775     -0.070868
Au     12.35347     10.88618     12.31371        -0.007544     -0.049518      0.043931
Au     13.91417     14.04538      9.25452        -0.039263     -0.005448      0.003548
Au     12.17601     15.83870     10.65836        -0.043755      0.024372     -0.030186
Au     18.91748     13.25498     13.61748         0.014268      0.018538      0.005479
Au     18.43577     13.94562     10.77873        -0.006552     -0.012085      0.039967
Au     16.69569     15.43286      9.01074        -0.040675     -0.009844      0.034200
Au     14.43015     11.71648     10.84039         0.017440      0.017670      0.006589
Au     14.94068     10.63705     13.43382        -0.009018      0.034252      0.065914
Au     16.47023     12.69314      9.32934         0.016590      0.014170      0.033830
Au     17.54629     15.68902     12.96691         0.070362     -0.020513     -0.042323
Au     20.34893     15.28860     12.22904         0.007421     -0.021320     -0.014009
Au     15.54456     14.39326     11.52635        -0.016571     -0.012991      0.049688
Au     17.02411     11.85895     12.09250         0.009200      0.011875      0.046410
Au     11.54439     17.56196     12.80732         0.054349     -0.029455     -0.029038
Au     13.52548     19.47880     13.03475        -0.131738      0.180733     -0.026943
Au     12.80836     18.52975     10.53185         0.027067     -0.050871      0.037066
Au     15.17196     19.98050     10.78732        -0.011361      0.009155      0.039916
Au     16.57875     18.20766     13.74455         0.007845      0.027995     -0.000227
Au     17.83460     19.37238     11.39645        -0.013412      0.003856      0.006056
Au     14.46415     16.17865     13.65775        -0.017924     -0.043186      0.003556
Au     15.88470     20.92322     13.35132        -0.015156      0.021155     -0.028016
Au     18.68451     16.80693     10.48535         0.011220     -0.006050      0.012779
Au     14.21541     16.78823      8.89794        -0.076102     -0.033385     -0.030549
Au     16.67273     18.24173      9.07379        -0.024955      0.002021      0.003064
Au     15.46166     17.21980     11.35994         0.014464     -0.048019      0.039413
Au     19.56915     17.85063     13.03212         0.044666      0.011026     -0.015434
Au     12.03585     16.06182     15.12821        -0.101176      0.001049      0.009909
Au     13.46618     11.87345     18.13218        -0.062283     -0.019177     -0.089018
Au     10.71232     12.39251     13.88688         0.084932      0.049346     -0.054215
Au     12.48704     10.37530     15.01545         0.040586     -0.047861     -0.007609
Au     13.51800     12.91703     15.54249         0.097115      0.025595      0.014062
Au     11.93364     14.60654     17.64518         0.017345      0.028174      0.030325
Au      9.90880     14.41840     15.60422        -0.000439      0.007808     -0.062663
Au     11.07278     12.12950     16.70023         0.018245     -0.039648      0.007740
Au     14.49847     15.28287     16.53799         0.053090      0.036788     -0.063819
Au     19.83982     15.68530     14.90606         0.009414     -0.059485      0.050758
Au     16.90030     15.10713     18.44756         0.026626     -0.016528     -0.005332
Au     16.20773     12.53511     17.62007        -0.025045      0.029984     -0.106321
Au     14.99011     10.49032     16.21615         0.025059     -0.061585      0.012415
Au     14.36400     14.23958     19.15462         0.005925      0.018844     -0.004955
Au     15.88447     13.83204     14.36791         0.037136     -0.052818      0.037632
Au     17.25154     11.47793     14.99051         0.023731      0.037499     -0.011942
Au     18.41435     13.67818     16.36759        -0.026085     -0.021851     -0.005790
Au     11.94227     18.85795     15.27276         0.034221      0.070083     -0.013432
Au     12.57551     17.36109     17.61040         0.000993      0.052926      0.009665
Au     19.00213     18.29987     15.80525         0.022131      0.001722      0.026895
Au     14.64382     17.95765     15.71601        -0.030637      0.000537      0.000409
Au     16.75446     20.06683     16.08425        -0.051655     -0.020849      0.023828
Au     19.27826     16.16154     17.56625         0.008302     -0.058600     -0.023361
Au     14.88165     16.94459     19.15769        -0.009002     -0.032708     -0.022994
Au     14.64787     19.46511     17.99553         0.043912      0.046804      0.041479
Au     18.54113     20.31439     13.94980         0.049841     -0.008224     -0.021965
Au     17.16218     18.01435     17.99122        -0.021921     -0.005610     -0.014457
Au     14.06294     20.69528     15.51152        -0.044627      0.026476      0.024115
Au     17.01564     16.16640     15.70808        -0.025486     -0.051934      0.043561
