58
# total energy = -160.62156128 eVAu     10.45147     14.98502     13.93336        -0.022605      0.056707     -0.025920
Au     12.24681     14.67018     11.81247        -0.023377      0.108379      0.058834
Au     12.61154     11.85126     11.32737        -0.100387      0.006146     -0.008243
Au     13.58276     10.28310     13.38745        -0.071276     -0.065585     -0.035349
Au     14.15871     13.03099     13.84430         0.175867      0.151844      0.040171
Au     11.38311     12.37382     13.74566         0.034855     -0.030737      0.004912
Au     13.13565     15.51093     14.50783        -0.005713      0.059136     -0.077944
Au     17.24568     12.99238     13.57266        -0.028210     -0.065285     -0.064664
Au     18.29986     15.45903     12.61652         0.148873     -0.045075     -0.043807
Au     15.20086     15.26056     12.55029        -0.061567     -0.041382      0.059076
Au     16.99017     13.81292     10.80091         0.045512     -0.026742      0.053705
Au     14.99626     16.22305      9.81653        -0.117299      0.009237      0.015881
Au     14.28921     13.64917     10.21423        -0.010122      0.119015     -0.048510
Au     15.50670     11.64062     11.82522         0.131456      0.005525      0.071757
Au     11.36318     17.66164     13.82116         0.068430     -0.048279     -0.027392
Au     13.17779     19.81326     13.55592        -0.011366     -0.016887      0.038681
Au     13.18911     17.34830     11.74621        -0.039219     -0.060224     -0.023200
Au     14.51238     19.79120     11.13704         0.080565     -0.058921      0.035143
Au     17.82482     16.36086      9.98706         0.067630     -0.000740      0.040935
Au     17.41904     20.22502     11.12472        -0.125190     -0.051991      0.016113
Au     14.87199     17.80087     14.40723        -0.103605     -0.015456     -0.003248
Au     15.96324     20.55431     13.51461         0.002014      0.022815     -0.079483
Au     19.22446     18.07319     11.81679        -0.054955     -0.107997     -0.025356
Au     16.24545     18.61370      9.18896        -0.058493      0.008939      0.050738
Au     18.89118     20.38392     13.41139        -0.060906      0.022186      0.013533
Au     17.69934     17.91123     14.32516         0.098304     -0.120758      0.067832
Au     20.31522     16.76319     14.07181         0.003684      0.010371     -0.071307
Au     16.26865     17.73427     11.94398         0.007336      0.098209     -0.037888
Au     11.28958     13.55692     16.25016        -0.024110      0.023689      0.056887
Au     13.00556     11.21428     15.89386        -0.044562      0.106386      0.064687
Au     12.13724     14.96813     18.56743         0.007570     -0.041228     -0.042522
Au     12.57613     12.24526     18.37756        -0.024706      0.028867     -0.011011
Au     16.49132     15.44465     17.87228        -0.003054     -0.059954     -0.033284
Au     14.50689     13.81632     19.59753        -0.097784      0.032801     -0.019954
Au     14.38797     13.88731     16.55082         0.017493      0.001045     -0.003245
Au     16.51863     15.43961     20.69782        -0.037452      0.033536      0.027361
Au     17.14399     13.05177     19.22759        -0.030488     -0.016851     -0.057543
Au     15.22811     11.49655     17.76354         0.107523      0.050475     -0.042424
Au     15.75835     11.00502     14.97877         0.100972      0.037678     -0.036139
Au     16.30325     15.49911     15.12064         0.048784     -0.193284     -0.149870
Au     19.28157     14.17100     17.85291        -0.064355      0.032457     -0.052133
Au     17.36265     12.73288     16.39283         0.068430     -0.102387      0.016766
Au     19.15473     14.39019     15.04834        -0.068661      0.056249      0.078794
Au     12.37278     18.94374     16.10854         0.021574     -0.033492      0.045197
Au     13.97105     16.62366     16.96475        -0.011728      0.117353      0.002352
Au     14.11964     19.13368     18.50775         0.028506     -0.006404     -0.044505
Au     14.08626     16.62948     19.93522        -0.047202      0.040743     -0.034952
Au     10.96375     16.38745     16.30482         0.027341     -0.016709      0.050365
Au     11.80173     17.70581     18.58151        -0.052189      0.042768      0.008704
Au     18.72354     19.01461     18.13592         0.048386     -0.029665      0.024013
Au     16.40166     18.04750     16.84895         0.005035      0.000112     -0.017906
Au     17.58302     20.62196     15.85443        -0.079519     -0.011590      0.001703
Au     18.69632     16.48377     19.38018        -0.031117      0.018906     -0.019587
Au     16.45516     18.16431     19.85918        -0.032403      0.001210     -0.014019
Au     19.21391     16.67656     16.64335         0.241506     -0.052969      0.126679
Au     16.42424     20.58137     18.36987        -0.055268      0.027653      0.006606
Au     14.74439     20.40707     15.98921        -0.014030     -0.078753      0.070877
Au     19.98555     19.13941     15.61288         0.025274      0.068910      0.003102
