58
# total energy = -161.20774070 eVAu     10.64417     14.94571     12.87566        -0.099040      0.046733     -0.150684
Au     11.76489     13.13125     10.78771        -0.044582     -0.016332      0.010785
Au     13.25256     13.79819     13.01637        -0.130020     -0.160119     -0.038638
Au     12.32297     10.89846     12.32586         0.047543     -0.005730     -0.101849
Au     13.95349     14.05767      9.22595        -0.097669     -0.065475      0.018309
Au     12.31362     15.84022     10.75077        -0.145365     -0.140289     -0.124432
Au     18.88832     13.25356     13.61147         0.134313      0.009934      0.007335
Au     18.42392     13.94622     10.77262         0.047458     -0.006319     -0.020304
Au     16.70471     15.44138      8.99344        -0.078238      0.017542      0.029085
Au     14.41787     11.71487     10.82952        -0.033906      0.038575      0.017629
Au     14.90991     10.69723     13.43555         0.017781     -0.011124      0.064849
Au     16.47752     12.69807      9.33802        -0.036320     -0.042842     -0.045307
Au     17.54034     15.66705     12.96066        -0.000710      0.157060      0.029210
Au     20.29895     15.30205     12.22088         0.174758     -0.018704      0.025450
Au     15.53439     14.40810     11.52188         0.037327     -0.061969     -0.050254
Au     17.01808     11.86790     12.07831        -0.049762     -0.057854      0.058610
Au     11.55025     17.54878     12.81255        -0.025667     -0.006788      0.057989
Au     13.60367     19.35328     13.05523        -0.041478      0.234326     -0.029608
Au     12.80481     18.53392     10.52950         0.045557      0.045524     -0.009358
Au     15.16602     19.99999     10.78872         0.000010     -0.030060     -0.047279
Au     16.59191     18.22069     13.73938         0.029491     -0.034655      0.070302
Au     17.82777     19.39644     11.38932        -0.012693     -0.005344     -0.004077
Au     14.50525     16.15257     13.64133        -0.050474      0.148765      0.097599
Au     15.88653     20.93725     13.33631         0.042526      0.009040      0.047324
Au     18.67057     16.81811     10.46895        -0.001457      0.027790      0.022071
Au     14.21840     16.80026      8.88621         0.034572      0.036328     -0.032406
Au     16.68482     18.26838      9.05115        -0.097394     -0.057963      0.076804
Au     15.47502     17.23615     11.35725         0.034327      0.018872     -0.118915
Au     19.56227     17.87232     13.00716         0.032726     -0.046414      0.072148
Au     12.06024     16.00836     15.11339         0.088281      0.161989      0.045857
Au     13.43755     11.87155     18.14629         0.062418      0.015341      0.043344
Au     10.68877     12.39430     13.90563         0.105472     -0.026390      0.025957
Au     12.46413     10.38144     15.00875        -0.000137     -0.062447      0.053056
Au     13.50947     12.90993     15.58375        -0.108676      0.028369     -0.100652
Au     11.92869     14.58941     17.68066         0.021504     -0.049882     -0.048487
Au      9.92812     14.43216     15.60898        -0.095014     -0.154038      0.079372
Au     11.04672     12.08995     16.74617         0.005000      0.124675     -0.134159
Au     14.51506     15.26432     16.54510        -0.092436      0.015903      0.053634
Au     19.83665     15.69010     14.90452         0.027637      0.001892     -0.069609
Au     16.88953     15.12806     18.43986         0.049853     -0.067487      0.060086
Au     16.20153     12.55913     17.59483        -0.142680     -0.020635     -0.031295
Au     14.95594     10.49395     16.21799         0.066193     -0.095655      0.075234
Au     14.36996     14.24531     19.17752        -0.032561     -0.090489     -0.039354
Au     15.85706     13.81339     14.39522         0.051962      0.082630     -0.115141
Au     17.19954     11.52346     14.99409         0.191698     -0.271919      0.019231
Au     18.41053     13.68915     16.35436         0.033846     -0.055606      0.062395
Au     11.97826     18.83500     15.27751        -0.123455      0.009381     -0.008891
Au     12.57379     17.31981     17.59052        -0.039565      0.089710      0.058532
Au     19.00025     18.32139     15.80920        -0.006511     -0.035596     -0.046946
Au     14.65004     17.91789     15.71157         0.059154      0.095805     -0.017815
Au     16.75107     20.08330     16.10061         0.015847      0.020234     -0.123610
Au     19.24588     16.17415     17.53531         0.092632     -0.020370      0.114948
Au     14.87001     16.94429     19.14598        -0.013683      0.027845      0.035526
Au     14.62242     19.45864     17.97294         0.009017      0.037749      0.103420
Au     18.55409     20.32258     13.95118        -0.039610      0.025397     -0.000345
Au     17.13197     18.03865     17.96926         0.047511     -0.087429      0.040188
Au     14.07388     20.66571     15.50196        -0.030231      0.123142     -0.020361
Au     17.00716     16.13855     15.69872         0.062919      0.155374     -0.046504
