58
# total energy = -160.85386179 eVAu     10.44801     14.98754     13.94135        -0.068162      0.031725      0.024745
Au     12.18389     14.71329     11.78198        -0.012407     -0.021744      0.073667
Au     12.57604     11.89846     11.32922        -0.018186     -0.006844     -0.001518
Au     13.54031     10.31916     13.38000         0.008228      0.051702      0.008860
Au     14.28396     13.09329     13.88558         0.040159      0.012395      0.016802
Au     11.45406     12.40793     13.78200        -0.021499      0.047521     -0.038263
Au     13.13342     15.52792     14.47986        -0.043531     -0.041568     -0.017374
Au     17.36539     12.91429     13.55102         0.027359      0.007198      0.009358
Au     18.48192     15.34483     12.55381         0.126123     -0.036252     -0.072727
Au     15.17483     15.30100     12.51781        -0.082242     -0.033186     -0.067928
Au     16.99301     13.79781     10.84061        -0.023893     -0.035544     -0.036219
Au     14.94617     16.25313      9.82012        -0.026276      0.006206     -0.037462
Au     14.27597     13.68101     10.24885         0.078106      0.021623     -0.028820
Au     15.52253     11.63718     11.86894         0.004193      0.013367     -0.014162
Au     11.40017     17.64993     13.83877        -0.079753      0.015445     -0.039669
Au     13.18403     19.78983     13.59872        -0.013817      0.025045      0.017067
Au     13.09442     17.34617     11.66302         0.010846      0.072539      0.058579
Au     14.51307     19.74868     11.19605        -0.078230      0.037475     -0.039034
Au     17.80010     16.34123     10.01074        -0.023753     -0.049501     -0.026967
Au     17.36483     20.19578     11.15189        -0.009333      0.076361     -0.070692
Au     14.90196     17.76195     14.39738        -0.015675      0.004899      0.012080
Au     15.91759     20.66743     13.52487        -0.024227     -0.070568     -0.033825
Au     19.19543     18.02006     11.81148        -0.006225      0.071762      0.028681
Au     16.20664     18.61506      9.20283        -0.014315     -0.015689     -0.035836
Au     18.81772     20.36646     13.41455        -0.015747     -0.088748      0.020365
Au     17.73471     17.77901     14.35470         0.091634     -0.061333      0.019108
Au     20.34335     16.78091     14.05734         0.064596      0.008292      0.060228
Au     16.28777     17.72987     11.96515         0.037075      0.033148      0.016098
Au     11.18301     13.54634     16.29772         0.069110      0.004569     -0.024527
Au     13.00706     11.28640     15.88526         0.074190      0.014144      0.048112
Au     12.13180     14.98846     18.54946        -0.041296     -0.021275     -0.000790
Au     12.58831     12.26841     18.37041         0.007458     -0.005769      0.003221
Au     16.48990     15.41926     17.78835        -0.003118      0.021291      0.053571
Au     14.45283     13.86076     19.62385         0.010941     -0.027275     -0.032420
Au     14.37349     13.94553     16.55532        -0.110626     -0.040458      0.103254
Au     16.45187     15.47989     20.67314         0.003309     -0.031780     -0.024576
Au     17.08371     13.08731     19.17514         0.025055     -0.065994      0.079906
Au     15.25912     11.55090     17.69362        -0.020101     -0.072149     -0.028837
Au     15.78549     10.99633     14.92830         0.072756     -0.089069      0.005914
Au     16.32324     15.38814     15.03390        -0.052625     -0.072108     -0.053795
Au     19.25206     14.17273     17.86238        -0.038672      0.040554     -0.009669
Au     17.53200     12.54475     16.37700        -0.014983      0.000231      0.020018
Au     19.10951     14.44594     15.09467         0.084410      0.064512      0.035234
Au     12.34289     18.95398     16.13971        -0.024650     -0.021423     -0.034258
Au     13.97377     16.67749     16.93751        -0.050767      0.024095      0.044482
Au     14.12320     19.12432     18.50830        -0.055523      0.046996     -0.010798
Au     14.02934     16.67009     19.94295        -0.009410     -0.009867     -0.010505
Au     10.97103     16.36167     16.32107        -0.032682      0.085056     -0.048012
Au     11.77614     17.72483     18.57762        -0.090394      0.063756      0.089480
Au     18.71798     18.99237     18.12993         0.016018      0.026343      0.003675
Au     16.43429     18.01063     16.82515         0.005121      0.070043      0.060981
Au     17.52112     20.61682     15.84565         0.062879     -0.023034      0.023498
Au     18.61920     16.49063     19.34973         0.054578     -0.023501     -0.028642
Au     16.41947     18.19630     19.90216         0.015970     -0.017918     -0.106871
Au     19.56108     16.67926     16.73607         0.169148     -0.017222      0.042410
Au     16.41939     20.57497     18.37849         0.021058     -0.000178      0.025493
Au     14.73761     20.35685     16.01350        -0.079565      0.019081     -0.029495
Au     19.94241     19.17685     15.61049         0.021359     -0.017378     -0.001200
