58
# total energy = -161.28775854 eVAu     10.65756     15.30641     13.24187        -0.026080      0.024559      0.012387
Au     12.19747     13.83553     11.12392        -0.006342      0.021377     -0.003850
Au     13.06075     14.11360     13.96634        -0.011004     -0.001357      0.021310
Au     13.54633     11.60902     12.23617        -0.005735     -0.002304      0.027274
Au     13.61222     15.17059      9.22258         0.010206     -0.020627     -0.004402
Au     10.89408     12.40848     13.04387         0.015170     -0.031923      0.036938
Au     18.33271     12.72914     14.46373        -0.004414      0.029630     -0.019744
Au     14.99064     10.35957     14.24984        -0.001052     -0.014466     -0.013822
Au     17.61868     13.92290     11.05084         0.011289     -0.007859      0.004365
Au     17.09692     15.39448     13.49794         0.027980      0.001713      0.016326
Au     19.68688     14.52944     12.80588        -0.013531      0.024787     -0.001911
Au     15.04910     12.99760     10.29911        -0.014144      0.007187     -0.001632
Au     14.69349     15.14799     11.99064        -0.016891     -0.009587     -0.015360
Au     16.38130     11.99516     12.57585         0.002416     -0.010349     -0.009030
Au     11.81606     17.79594     13.76888        -0.005755     -0.018007     -0.010482
Au     12.91780     19.23808     11.68192         0.011612      0.014720      0.011688
Au     12.05110     16.63134     11.19515        -0.013079      0.020921      0.019106
Au     14.17033     17.81799      9.71480         0.002425      0.010846      0.026236
Au     18.45998     16.65507     11.23160         0.008826      0.005689      0.020841
Au     16.27215     15.86632      9.64419         0.008312     -0.025133     -0.007381
Au     15.45154     20.45157     11.94758         0.012423     -0.014500     -0.019499
Au     13.72148     19.90612     14.20930         0.013355      0.007165      0.017575
Au     16.43002     20.68776     14.55837         0.019820      0.004969      0.000519
Au     18.03486     19.22531     12.43058        -0.009139     -0.007777      0.009845
Au     16.79712     18.64179     10.03321         0.026745     -0.016019      0.013297
Au     15.43811     17.73867     12.34984        -0.018010      0.004839     -0.007172
Au     19.58302     17.15503     13.78764         0.020705      0.000896     -0.000375
Au     14.47746     16.42912     14.55900        -0.012866      0.013869     -0.002532
Au     12.99585     11.85899     18.96762        -0.012412     -0.020763     -0.001314
Au     10.46091     13.60412     15.48683        -0.021296      0.026996     -0.010966
Au     12.30752     10.65413     14.63546        -0.005155     -0.011862      0.016216
Au     13.33305     12.72419     16.28696        -0.006511     -0.014079      0.012063
Au     11.47565     14.12818     18.01360        -0.015220     -0.015062     -0.012980
Au     14.22165     10.21220     16.96773         0.021517      0.005941     -0.009710
Au     13.87417     14.39325     19.62762         0.011757     -0.008587      0.003353
Au     11.09928     16.22404     15.96792         0.000006     -0.019472     -0.047940
Au     11.03114     11.34272     17.03605        -0.015033      0.023167      0.008321
Au     14.30498     15.14901     16.97233        -0.013356     -0.027713     -0.020550
Au     19.29032     15.39320     18.32792         0.003035      0.004656      0.004942
Au     15.67016     12.32348     18.41557         0.024812     -0.006942     -0.017579
Au     19.73429     14.90061     15.58005        -0.018504      0.036883      0.016770
Au     16.65567     14.80831     19.22595         0.024192     -0.010878     -0.007106
Au     15.64004     13.47561     14.96284        -0.017985      0.005736      0.001400
Au     17.03378     15.60604     16.41388         0.004952      0.010492      0.000855
Au     16.79904     11.07936     16.13855         0.006384     -0.007656     -0.009494
Au     18.14666     13.12051     17.31729        -0.007356      0.000183     -0.018241
Au     12.40589     18.65687     16.31171        -0.011083     -0.035513     -0.005722
Au     13.22991     19.22308     18.87758         0.015767      0.017898     -0.011022
Au     12.35155     16.67668     18.42976        -0.001366      0.004759      0.006478
Au     19.31570     17.55503     16.60454        -0.003547     -0.009248      0.018245
Au     15.15463     17.76315     17.01388        -0.026604      0.008923     -0.008863
Au     16.90655     17.90325     14.79999        -0.002341      0.001867      0.000438
Au     17.45347     19.74325     17.07731         0.012697     -0.027527      0.017698
Au     14.88986     16.97407     19.75189         0.021169     -0.015976      0.026351
Au     17.60912     17.48700     18.91785        -0.022105      0.029636     -0.008056
Au     19.13007     19.73479     14.90275         0.031153      0.034210     -0.025928
Au     15.90457     19.60760     19.32844        -0.010397     -0.011296      0.003678
Au     14.66072     20.48751     16.76539        -0.000412      0.017967     -0.041851
