58
# total energy = -161.25810992 eVAu     10.09422     13.76795     12.72393         0.023028      0.001743      0.025930
Au     11.71579     14.04770     10.39689        -0.031953      0.027218      0.000941
Au     11.96565     11.72146     11.95791         0.060021      0.009825      0.004935
Au     12.49823     15.66939     12.84777        -0.028289      0.017760      0.001578
Au     16.87727     12.62976     12.27950         0.004497      0.006368      0.009958
Au     14.16420     13.62646     11.92736         0.019453      0.007296     -0.017258
Au     16.77651     14.67424     10.26170        -0.011647     -0.010609      0.026805
Au     15.42753     12.28255      9.81853        -0.025695      0.012507     -0.001088
Au     18.32873     15.00462     12.63894        -0.092274      0.009345      0.059488
Au     14.12432     14.71403      9.23955         0.027919      0.043419     -0.028029
Au     14.65620     10.84970     12.07730         0.053622     -0.004981      0.017639
Au     10.07725     16.14924     11.29071        -0.043842      0.052678      0.037006
Au      9.81948     16.28830     14.04053         0.016008      0.076099     -0.015636
Au     11.37591     18.27714     12.62757        -0.029101      0.001300     -0.010704
Au     12.96835     20.04892     14.07835        -0.000609     -0.059575     -0.000802
Au     12.50835     16.86642     10.18966         0.028627      0.017329     -0.002942
Au     13.51435     19.27863     11.18045         0.083552     -0.057572      0.078651
Au     17.73810     17.15454     10.86388         0.037406      0.001787     -0.010141
Au     18.71695     19.61337     11.60724        -0.034770      0.016720     -0.021348
Au     15.08789     21.06483     12.66426        -0.045901      0.053899     -0.044109
Au     19.22119     17.52040     13.40388         0.050351     -0.018741     -0.029081
Au     15.15355     17.29268      9.50661         0.005285     -0.032754     -0.034104
Au     16.19765     19.64394     10.47768        -0.004884     -0.038996     -0.005818
Au     17.64728     21.09054     13.75202        -0.027348      0.134407     -0.023413
Au     16.36811     18.59242     13.09266         0.011107      0.021710      0.058725
Au     15.25306     16.23476     12.08021        -0.054169      0.074097      0.068501
Au     20.25157     20.08435     13.86261        -0.035771     -0.008461      0.023929
Au     12.33577     15.65795     15.72833        -0.020395      0.020752      0.073345
Au     13.17605     12.60296     19.04633         0.002643     -0.006305      0.026300
Au      9.95103     13.91191     15.60199        -0.025595     -0.024808      0.001097
Au     13.11442     10.48101     14.36580         0.030162     -0.043799      0.011606
Au     12.77326     13.25282     14.40137        -0.010233     -0.005083     -0.042337
Au     10.49268     11.49731     14.31616        -0.020421     -0.002299      0.017538
Au     11.24929     14.47302     18.20060         0.007703      0.014361     -0.025919
Au     11.62128     12.00844     16.80739         0.007966     -0.002637     -0.015499
Au     14.36333     13.73030     16.77290        -0.091304      0.023183      0.001626
Au     19.33426     15.54411     15.28503         0.009041     -0.054842      0.037429
Au     15.79439     13.62719     19.21309         0.082664      0.002239     -0.026605
Au     14.19080     10.93342     16.92583         0.010407     -0.065405     -0.021952
Au     13.59688     15.39630     19.48961         0.029553     -0.023894     -0.055576
Au     15.78040     11.37206     14.58276         0.022026     -0.059858      0.001374
Au     15.13686     14.80425     14.40411         0.041699     -0.077558     -0.026455
Au     17.64769     14.59196     17.31540         0.132793     -0.098198      0.086951
Au     16.74506     12.01266     17.10810        -0.038422      0.062934     -0.053444
Au     17.77011     13.29083     14.80916        -0.059766      0.016184      0.029819
Au     11.25410     18.32419     15.47757         0.017408      0.000341     -0.040891
Au      9.70288     16.38490     16.80449        -0.014872      0.024354     -0.016222
Au     11.92125     17.27105     18.16724        -0.005878      0.039596     -0.068428
Au     18.32120     19.31075     15.76576        -0.064290     -0.004148     -0.048448
Au     14.75402     16.47562     16.94148        -0.034953      0.011266      0.046302
Au     16.87433     16.82945     15.12735         0.014073     -0.030418      0.053127
Au     15.53099     20.43383     15.41318        -0.026488     -0.052856     -0.095860
Au     18.51121     17.18952     17.48697         0.034206     -0.050049     -0.017244
Au     14.10343     17.51713     14.38504        -0.028049      0.042403     -0.013455
Au     14.27351     18.11797     19.30454        -0.011247      0.025579     -0.012157
Au     13.48739     19.27599     16.84259         0.003612     -0.020983     -0.014138
Au     16.43512     16.34821     19.17915         0.058330      0.012574      0.034975
Au     16.28898     18.92856     17.61490        -0.006999     -0.026445      0.003531
