58
# total energy = -160.79541319 eVAu     10.82114     15.09966     13.14687        -0.048871      0.068583      0.091840
Au     12.24365     13.79294     10.93821        -0.075976      0.013349      0.024991
Au     13.24651     13.78979     13.81096        -0.121010      0.040933      0.074506
Au     13.40173     11.46538     12.07658         0.076051      0.012033     -0.036391
Au     13.65001     15.28208      9.11000         0.033736     -0.020496     -0.039108
Au     10.83083     12.32863     12.79050        -0.014235     -0.041504      0.025544
Au     18.20243     12.75413     14.44041         0.101345     -0.050196     -0.048702
Au     14.71906     10.70016     14.35598         0.194240     -0.043948      0.044373
Au     17.49590     14.03049     10.88271        -0.049599     -0.021941      0.046853
Au     17.04484     15.39136     13.51360        -0.173629      0.067885      0.038828
Au     19.51413     14.57561     12.73648         0.181050     -0.095686     -0.057886
Au     14.93477     12.97744     10.12672         0.066657     -0.084245     -0.008026
Au     14.71931     15.08464     11.86876         0.090245      0.142060     -0.032327
Au     16.10193     12.34296     12.61477         0.044012     -0.086603     -0.001838
Au     11.94861     17.55321     13.73932         0.013402      0.011574      0.065574
Au     12.99129     19.18700     11.78453        -0.011986      0.004389      0.003074
Au     12.08972     16.59697     11.11753         0.020980      0.046591     -0.017789
Au     14.16970     17.93548      9.67035         0.010631      0.007473      0.027547
Au     18.42269     16.74796     11.22279        -0.048552     -0.016104     -0.037484
Au     16.28459     16.06536      9.51167        -0.000227     -0.067275      0.010113
Au     15.51722     20.41590     12.01309        -0.071262      0.058482      0.005410
Au     14.02737     19.45665     14.34219        -0.060738      0.156700     -0.013900
Au     16.57686     20.77418     14.59562        -0.092056      0.066416      0.002507
Au     18.11409     19.34155     12.43249         0.033518     -0.063432     -0.001224
Au     16.81123     18.78079     10.04639         0.010580     -0.041489     -0.020541
Au     15.51039     17.67407     12.31741        -0.101130     -0.151714      0.005569
Au     19.57695     17.20518     13.76260         0.018977      0.009284      0.044924
Au     14.53221     16.21811     14.54156        -0.048725      0.118385      0.012004
Au     12.95988     11.89854     19.19844         0.067387     -0.026558     -0.030150
Au     10.47714     13.26534     15.38412         0.054747      0.077702      0.037696
Au     12.02470     10.75117     14.71532         0.073027      0.055194     -0.016048
Au     13.21475     12.89806     16.42349        -0.106837     -0.197317     -0.035187
Au     11.31585     14.01277     18.15386        -0.019421      0.012781     -0.042215
Au     14.03492     10.32010     17.07301         0.034618      0.091991     -0.077717
Au     13.84901     14.42705     19.78062         0.015000     -0.031396     -0.029264
Au     11.70965     15.69710     15.85637        -0.142668      0.127904     -0.042847
Au     11.07232     11.25103     17.26953         0.025207      0.007816      0.006952
Au     14.39525     15.23885     17.17100        -0.002245      0.103234     -0.024641
Au     19.23781     15.43504     18.29991         0.066292     -0.086892      0.059885
Au     15.59242     12.40051     18.44230        -0.069350     -0.041091      0.041601
Au     19.64336     14.94787     15.52097         0.007559      0.043400      0.042752
Au     16.63929     14.84793     19.27705         0.076105      0.014241     -0.036490
Au     15.65177     13.50363     15.27547        -0.019261      0.060395     -0.127769
Au     17.05924     15.80051     16.47311        -0.041204     -0.013107     -0.048560
Au     16.70353     11.05686     16.20545        -0.079544     -0.110251     -0.026824
Au     18.04284     13.18948     17.25879         0.048051      0.065980      0.101192
Au     12.39171     18.38530     16.31853        -0.035845     -0.041164     -0.077199
Au     13.25173     19.15475     18.77190         0.032939      0.047790      0.066615
Au     12.26553     16.56975     18.55644         0.008953      0.005475     -0.054316
Au     19.38106     17.62105     16.60454        -0.011969     -0.029432      0.018939
Au     15.19024     17.88683     16.93493        -0.002300     -0.067356     -0.038076
Au     16.93496     17.99919     14.73509        -0.045820     -0.163259      0.065329
Au     17.56857     19.82711     17.12430         0.026909     -0.050892      0.018566
Au     14.88526     17.00944     19.72735         0.080274      0.045115      0.007464
Au     17.63362     17.56448     18.93031        -0.046968     -0.001932      0.015189
Au     19.22153     19.79121     14.91933         0.077302      0.039215     -0.036605
Au     15.91039     19.66097     19.30899        -0.024831      0.003020      0.075468
Au     14.76784     20.59058     16.78529        -0.023533      0.019892     -0.022181
