58
# total energy = -161.11561931 eVAu     10.67948     15.20879     13.18494         0.072080      0.011975      0.016693
Au     12.19447     13.84500     10.99825         0.039091     -0.016295      0.043663
Au     13.10720     13.99591     13.85009        -0.056106     -0.010239      0.041676
Au     13.50960     11.56210     12.15576        -0.035723      0.036251      0.067808
Au     13.66260     15.20011      9.12115        -0.020509     -0.019313      0.042658
Au     10.85963     12.35487     12.86998         0.056571      0.032575      0.043180
Au     18.26539     12.73966     14.49014         0.013880     -0.007576     -0.011826
Au     14.93937     10.48826     14.27889        -0.038467     -0.036157      0.000294
Au     17.51079     13.97552     10.97267         0.092900     -0.003612      0.014137
Au     17.02093     15.39500     13.49758         0.026487     -0.017883     -0.021855
Au     19.57265     14.53438     12.79222        -0.017088     -0.001834     -0.033490
Au     14.99306     12.92139     10.18653        -0.026372      0.058395      0.051754
Au     14.70796     15.09427     11.85883         0.011341      0.042817      0.049741
Au     16.30719     12.11230     12.57609        -0.017549     -0.033355     -0.026367
Au     11.86573     17.67482     13.74828         0.018275      0.038983      0.011661
Au     12.94159     19.24097     11.74453         0.020622     -0.062767     -0.006808
Au     12.06000     16.63683     11.12938        -0.009763     -0.034827      0.085984
Au     14.16601     17.86063      9.70666         0.016274     -0.005061      0.040212
Au     18.43014     16.66588     11.22310         0.022442      0.031408      0.045149
Au     16.30206     15.95036      9.50901        -0.033986      0.027062      0.045515
Au     15.48256     20.42189     12.02762         0.021034     -0.009888     -0.022721
Au     13.77499     19.84269     14.29769         0.000484     -0.034297     -0.025758
Au     16.50606     20.71429     14.61350        -0.018440     -0.035884     -0.031777
Au     18.06470     19.23028     12.46233        -0.025051      0.014129     -0.016516
Au     16.80423     18.68268     10.06642        -0.041457     -0.003808      0.006186
Au     15.40933     17.69176     12.34092         0.017742      0.013928     -0.024849
Au     19.59358     17.16273     13.78904        -0.017780     -0.012134     -0.033471
Au     14.45570     16.33794     14.52097         0.047299      0.018863      0.032479
Au     12.99941     11.90298     19.10808         0.000102     -0.012405     -0.085131
Au     10.49800     13.37453     15.41797         0.048011      0.097742      0.030875
Au     12.24848     10.79333     14.67745        -0.030611     -0.043382     -0.063127
Au     13.25210     12.84491     16.35939         0.054985     -0.028512     -0.013723
Au     11.36152     14.06173     18.06626         0.046301      0.026888     -0.043136
Au     14.11967     10.30568     16.98734         0.016595      0.011593      0.024992
Au     13.89950     14.42413     19.67549        -0.007165      0.006300     -0.040531
Au     11.27661     15.98065     15.91125        -0.020490      0.056261      0.015346
Au     11.08871     11.24969     17.20108         0.020520      0.043602     -0.076983
Au     14.32601     15.21743     17.02675         0.046832      0.034709     -0.002856
Au     19.31188     15.41842     18.33108        -0.027705     -0.015918      0.041602
Au     15.65756     12.33010     18.50753         0.025854      0.041002     -0.054911
Au     19.66687     14.93153     15.57005         0.056410     -0.014025     -0.011478
Au     16.69170     14.82665     19.26926        -0.013772      0.000894     -0.038522
Au     15.60672     13.49396     15.04945        -0.025261      0.014284      0.048886
Au     17.03814     15.70570     16.46143        -0.059652     -0.075714      0.023561
Au     16.73748     11.10689     16.21191        -0.007329     -0.047017      0.003697
Au     18.09858     13.17555     17.32281        -0.007105     -0.015610      0.029901
Au     12.39289     18.51624     16.30554         0.015249     -0.025813     -0.021018
Au     13.28981     19.17137     18.80712         0.007278      0.000965      0.034108
Au     12.32609     16.60432     18.49277        -0.012610      0.037523     -0.055906
Au     19.36358     17.57931     16.62561        -0.001326      0.027702     -0.025358
Au     15.16695     17.84314     16.94712        -0.012111     -0.069895      0.009979
Au     16.92035     17.91368     14.76783        -0.044526      0.074660     -0.006703
Au     17.52785     19.75368     17.12473         0.010588     -0.013860     -0.043934
Au     14.93797     17.00034     19.72330        -0.001242     -0.007549     -0.002352
Au     17.65417     17.52529     18.95605        -0.064350      0.023431     -0.012007
Au     19.18875     19.74845     14.92610        -0.034658     -0.002110     -0.017447
Au     15.94678     19.66351     19.35816        -0.034195     -0.079519      0.007894
Au     14.74425     20.56569     16.80441        -0.062849     -0.027685     -0.039070
