58
# total energy = -161.21404291 eVAu     10.09069     13.76222     12.72355         0.035033      0.037792      0.002205
Au     11.72440     14.04290     10.39827        -0.062508      0.026045      0.009025
Au     11.96170     11.71934     11.95485         0.065293      0.005379      0.024135
Au     12.50042     15.67437     12.85096        -0.041362     -0.033564     -0.028662
Au     16.87390     12.62384     12.27610         0.061236      0.047214      0.051755
Au     14.16860     13.62589     11.93603        -0.012694     -0.019361     -0.014674
Au     16.77318     14.67470     10.25914         0.046578     -0.006247      0.035378
Au     15.43169     12.28384      9.82245        -0.036322     -0.024042     -0.020769
Au     18.32111     15.01406     12.64313        -0.122098     -0.062879      0.010913
Au     14.13020     14.71043      9.24940         0.009880      0.085841     -0.063280
Au     14.65186     10.84883     12.07711         0.047206     -0.011160      0.013655
Au     10.08861     16.14792     11.28920        -0.100402      0.017012      0.063970
Au      9.81757     16.28221     14.04160         0.022162      0.077342     -0.024195
Au     11.37840     18.27129     12.63033        -0.015579      0.052893      0.018464
Au     12.97669     20.05169     14.07576        -0.072425     -0.138342      0.053061
Au     12.50721     16.86369     10.19146         0.087333      0.038445     -0.031341
Au     13.51404     19.28065     11.18051         0.074470     -0.076215      0.070305
Au     17.73151     17.15671     10.86314         0.065403     -0.004731     -0.026196
Au     18.72594     19.60798     11.60360        -0.060779      0.027901     -0.008231
Au     15.08817     21.05535     12.67058         0.019748      0.106425     -0.054608
Au     19.21575     17.51941     13.40618         0.069370      0.078244     -0.049838
Au     15.15492     17.29897      9.51056        -0.035329     -0.064849     -0.051241
Au     16.19935     19.64829     10.47289         0.014237     -0.011976      0.007383
Au     17.65523     21.08047     13.75649        -0.077477      0.127651     -0.049313
Au     16.36018     18.58718     13.07995         0.050034      0.043527      0.078435
Au     15.25432     16.22522     12.07804        -0.051391      0.116752      0.013455
Au     20.26045     20.08772     13.85920        -0.055030     -0.034381      0.022075
Au     12.33949     15.66773     15.72001        -0.074229     -0.057209      0.091249
Au     13.17588     12.60071     19.04406        -0.001329     -0.018349      0.028655
Au      9.95663     13.90668     15.60335        -0.042704      0.021583      0.010292
Au     13.11363     10.48389     14.36748        -0.000331     -0.062668      0.007955
Au     12.77861     13.25114     14.40563        -0.032089      0.007822     -0.049672
Au     10.48953     11.49934     14.31726        -0.000379     -0.032021      0.004395
Au     11.25365     14.47045     18.20233        -0.002760     -0.004078     -0.033697
Au     11.62043     12.00622     16.80755         0.017103     -0.017189     -0.007953
Au     14.36912     13.73140     16.76837        -0.094435     -0.005517      0.015003
Au     19.32235     15.55220     15.27928         0.055101     -0.072910      0.106720
Au     15.78747     13.62967     19.21145         0.101938     -0.032365     -0.006758
Au     14.19324     10.93722     16.92741        -0.008196     -0.078444     -0.013859
Au     13.59475     15.38991     19.49579         0.034686      0.042128     -0.070116
Au     15.76597     11.39614     14.58459         0.071219     -0.052510      0.007255
Au     15.12669     14.82485     14.40376         0.047287     -0.221168     -0.007547
Au     17.61369     14.60540     17.29467         0.160116     -0.134128      0.075911
Au     16.74719     12.00655     17.11639        -0.014859      0.093615     -0.088956
Au     17.78269     13.29055     14.80701        -0.125120     -0.040864      0.012304
Au     11.25516     18.32096     15.48702         0.038156      0.066464     -0.109902
Au      9.71757     16.38378     16.80633        -0.112296     -0.021512     -0.042169
Au     11.91740     17.26074     18.16954         0.107508      0.102980     -0.001985
Au     18.32912     19.31505     15.77099        -0.056819     -0.034622     -0.046346
Au     14.75176     16.47329     16.92314        -0.019275      0.042105      0.238277
Au     16.86483     16.83248     15.12292         0.123491      0.037058      0.060665
Au     15.53611     20.42941     15.42515        -0.012848     -0.011774     -0.172738
Au     18.50591     17.19287     17.49092         0.055297     -0.051320     -0.042125
Au     14.10876     17.51263     14.38567        -0.089279      0.181136     -0.075005
Au     14.27846     18.11868     19.30352        -0.057470     -0.023935     -0.046074
Au     13.48669     19.27691     16.84351        -0.010838     -0.035184      0.006258
Au     16.43149     16.34265     19.17319         0.019441      0.054617      0.055331
Au     16.28935     18.92934     17.61315        -0.000676     -0.042457      0.042765
