58
# total energy = -161.49106209 eVAu     10.57494     14.99325     12.83167         0.047462      0.028499      0.012561
Au     11.66272     13.08947     10.80662         0.001504     -0.020479      0.082774
Au     13.21563     13.82540     12.94489         0.011580     -0.000773      0.027756
Au     12.38918     10.84550     12.31927        -0.059048     -0.024011      0.006850
Au     13.85397     14.03149      9.29198         0.019342     -0.058359      0.082562
Au     12.02255     15.84206     10.56049         0.067704      0.028568      0.063678
Au     18.95177     13.26443     13.62610        -0.009759     -0.076148      0.005539
Au     18.44313     13.93667     10.80875        -0.015100      0.007453     -0.014489
Au     16.66353     15.42750      9.05107         0.009077     -0.023346      0.026295
Au     14.44272     11.72005     10.86803         0.048479      0.031459     -0.033839
Au     14.96487     10.60709     13.45815         0.014831      0.037556     -0.029272
Au     16.47423     12.69579      9.34550        -0.033511      0.014403      0.070494
Au     17.58325     15.69713     12.96772        -0.002890      0.007082     -0.003111
Au     20.39416     15.26993     12.23435        -0.029340      0.056862      0.003090
Au     15.55409     14.37290     11.55512         0.044297     -0.000735     -0.020213
Au     17.03620     11.85775     12.13101         0.018556     -0.000347     -0.031862
Au     11.57425     17.55867     12.79781         0.073262      0.058796      0.002099
Au     13.36412     19.71597     12.99297        -0.105822      0.101020     -0.040997
Au     12.83732     18.50067     10.55578        -0.001331     -0.042861      0.024993
Au     15.16439     19.96160     10.81921         0.006919     -0.010899      0.051702
Au     16.56813     18.19639     13.75561        -0.003817      0.013813     -0.002086
Au     17.83310     19.34920     11.40443        -0.008450     -0.020413      0.038636
Au     14.42143     16.17866     13.68663         0.041944     -0.037160      0.015196
Au     15.86665     20.91876     13.35516         0.006669     -0.066557      0.066850
Au     18.70171     16.79333     10.49960        -0.011075     -0.003964     -0.012564
Au     14.16886     16.75189      8.89675        -0.006375     -0.013598      0.030343
Au     16.64447     18.21397      9.10092        -0.035229      0.031895      0.011512
Au     15.45698     17.17798     11.38104        -0.025099     -0.008953      0.023853
Au     19.60454     17.83475     13.04735        -0.001304     -0.004389     -0.014434
Au     11.94975     16.12507     15.15239        -0.033077      0.063164      0.031896
Au     13.46110     11.86801     18.07142         0.002976     -0.016036     -0.012190
Au     10.78457     12.42484     13.84056         0.016956     -0.029258     -0.022666
Au     12.53540     10.35772     15.02342         0.012482      0.062528      0.021085
Au     13.58086     12.92848     15.49975         0.019980     -0.037037     -0.048743
Au     11.95015     14.64721     17.62424        -0.051178     -0.024383     -0.052149
Au      9.89343     14.40712     15.55934         0.005960     -0.029063      0.018904
Au     11.10591     12.14458     16.65017        -0.013821      0.081332     -0.040422
Au     14.49761     15.31964     16.50018        -0.039942     -0.030349      0.013368
Au     19.84989     15.64841     14.92761         0.057262      0.050268     -0.046313
Au     16.92037     15.08013     18.45580        -0.052211      0.028089     -0.010638
Au     16.19474     12.53270     17.58141        -0.008052      0.052972     -0.024324
Au     15.04191     10.44868     16.22045        -0.006007     -0.045058      0.012428
Au     14.36026     14.23352     19.11781         0.025309     -0.002069     -0.050621
Au     15.94232     13.83022     14.36534         0.016848      0.038383      0.022643
Au     17.30289     11.45398     14.98461        -0.035362     -0.014288      0.021931
Au     18.40951     13.65837     16.37179         0.039679     -0.002755     -0.004385
Au     11.93378     18.91205     15.25654         0.005908      0.007973     -0.027407
Au     12.57991     17.42714     17.62237        -0.005332     -0.008549     -0.041993
Au     19.01345     18.28035     15.81720        -0.004955     -0.025224      0.009181
Au     14.61501     17.99673     15.71692         0.013475     -0.001676     -0.013747
Au     16.73234     20.03807     16.07829         0.044894      0.006869     -0.040240
Au     19.30788     16.11897     17.57935        -0.053878      0.035659     -0.020167
Au     14.88826     16.93202     19.14568        -0.014993     -0.035413     -0.057490
Au     14.69985     19.49088     18.03247        -0.006848     -0.027723     -0.054703
Au     18.55207     20.29386     13.94611        -0.098921     -0.058232      0.024953
Au     17.17806     17.98921     18.00087         0.026590     -0.024548     -0.046124
Au     14.03628     20.73254     15.53428         0.053283     -0.010250     -0.009948
Au     17.02091     16.16124     15.71925         0.019500     -0.009739      0.003960
