58
# total energy = -161.58407613 eVAu     10.59593     15.04184     12.85308         0.013222      0.018921      0.017543
Au     11.60373     13.06873     10.88538        -0.036591     -0.028770      0.008873
Au     13.23550     13.84048     12.91935         0.038295     -0.034692      0.054412
Au     12.39039     10.77296     12.31979         0.031093      0.008882     -0.022736
Au     13.81219     13.98875      9.38252         0.017232     -0.008819     -0.006619
Au     11.99502     15.83948     10.56626         0.071747      0.041665      0.097649
Au     18.98179     13.23718     13.63550        -0.001803      0.018950     -0.045073
Au     18.45962     13.93464     10.81539         0.028989      0.016904      0.000508
Au     16.65387     15.42728      9.08165         0.037169     -0.023560     -0.015044
Au     14.45007     11.70575     10.89305        -0.025859     -0.062646      0.059635
Au     14.98586     10.61180     13.46555         0.002278      0.000648     -0.006013
Au     16.47175     12.69571      9.38199        -0.014866      0.000979     -0.017830
Au     17.62431     15.70377     12.97227         0.021974     -0.035675     -0.004622
Au     20.40765     15.28160     12.22986        -0.002309     -0.009774     -0.031578
Au     15.59627     14.35580     11.58303         0.036390      0.016523      0.009913
Au     17.06967     11.84031     12.13043         0.008063     -0.025338      0.031148
Au     11.63366     17.59908     12.81250        -0.001949      0.056152     -0.043388
Au     13.18877     19.97080     12.92749         0.025766     -0.051028      0.008325
Au     12.86620     18.49050     10.57198        -0.043258     -0.010793     -0.038032
Au     15.15536     19.95038     10.88841         0.001816      0.067211     -0.024626
Au     16.55219     18.16238     13.75811         0.019272      0.058883      0.020183
Au     17.82270     19.31239     11.42059         0.000213      0.038742      0.012296
Au     14.41935     16.15370     13.72624        -0.015207     -0.030122     -0.009606
Au     15.82507     20.88182     13.40052         0.065672      0.005204      0.012450
Au     18.69938     16.79420     10.48708         0.018357     -0.027103      0.001152
Au     14.14627     16.69686      8.91561        -0.023467      0.001238      0.000181
Au     16.58718     18.21582      9.13779        -0.007754      0.002638     -0.044983
Au     15.42153     17.15306     11.40445        -0.047058     -0.051604      0.044074
Au     19.62939     17.83517     13.04733         0.013438     -0.009251     -0.030138
Au     11.84534     16.22115     15.18355        -0.027634      0.034788      0.032050
Au     13.45558     11.84479     18.00657         0.011050     -0.024242      0.040775
Au     10.81636     12.43483     13.78447        -0.034934      0.005509      0.018166
Au     12.56584     10.37866     15.03744        -0.020604     -0.016954      0.006073
Au     13.65442     12.90704     15.45090         0.019132     -0.007543     -0.049466
Au     11.92247     14.67144     17.58366        -0.027245      0.035270      0.002011
Au      9.86563     14.39938     15.51853         0.007731     -0.019286      0.005079
Au     11.12135     12.19144     16.59594        -0.041458      0.007691     -0.058876
Au     14.46450     15.31924     16.47722         0.008798      0.026354     -0.008359
Au     19.90062     15.64985     14.92065        -0.002121     -0.011923      0.009289
Au     16.91213     15.07881     18.44824        -0.004748     -0.007817     -0.019248
Au     16.18184     12.55858     17.51510         0.012588     -0.002980     -0.021551
Au     15.07580     10.38269     16.23653        -0.002889     -0.009795     -0.023540
Au     14.34384     14.21039     19.06289        -0.011436     -0.016161      0.002219
Au     16.01615     13.84526     14.37968         0.002521     -0.012457     -0.009842
Au     17.31396     11.42923     14.99675         0.028662      0.002769     -0.025399
Au     18.45231     13.64800     16.36451        -0.001858      0.010934      0.008785
Au     11.93903     18.99430     15.23059        -0.009666     -0.011549      0.017491
Au     12.56847     17.46791     17.60130        -0.038176      0.015943     -0.010420
Au     19.03747     18.25551     15.81545        -0.028898      0.010497      0.012845
Au     14.60461     18.00700     15.70644        -0.017635     -0.021036     -0.010044
Au     16.74721     20.02838     16.09005         0.024686      0.003101     -0.043395
Au     19.31109     16.09979     17.57277        -0.019928      0.014746     -0.008115
Au     14.86977     16.91061     19.08476        -0.003605     -0.016155     -0.007969
Au     14.72417     19.48552     18.01299        -0.061607      0.036554      0.039395
Au     18.52108     20.25337     13.95174        -0.051992      0.017731      0.003806
Au     17.18900     17.97590     17.98517         0.030930     -0.023254      0.010331
Au     14.04414     20.75173     15.53532         0.013988      0.024189      0.033282
Au     17.02644     16.14696     15.72718         0.015480      0.010715      0.016572
