58
# total energy = -160.88284748 eVAu     10.57230     14.29061     12.61633         0.064129     -0.089118      0.048209
Au     12.08867     15.20019     10.41268         0.115878     -0.055368      0.027375
Au     12.70310     12.58408     11.69812        -0.014829      0.022519      0.066193
Au     14.03794     11.29575     13.84139        -0.054696     -0.170751     -0.139978
Au     12.99319     14.23080     14.20083        -0.021482     -0.233119      0.311056
Au     11.25088     11.91681     14.02955         0.210681      0.194975      0.072921
Au     14.15641     13.42515      9.50803         0.011861      0.097907      0.088399
Au     18.15854     13.10725     12.36388         0.087221     -0.073112     -0.082959
Au     19.23360     15.14997     10.66243         0.065221     -0.051623      0.027056
Au     14.49110     14.95538     11.97786         0.059305      0.036057     -0.117943
Au     16.71345     14.28240     10.05289        -0.040839     -0.074458     -0.107060
Au     16.93822     11.27739     14.12547        -0.014895      0.034381      0.003796
Au     15.94094     13.86711     14.29455        -0.148281      0.118486      0.081470
Au     19.89197     15.17463     13.37412         0.058381      0.023241     -0.031178
Au     17.11606     15.78923     12.51382        -0.010926      0.212872      0.203406
Au     15.58188     12.20768     11.70392         0.014559     -0.087721     -0.101770
Au     12.17401     16.62747     12.87023        -0.303151      0.221886     -0.143713
Au     12.40728     19.36934     12.82269        -0.115424      0.043010     -0.119258
Au     12.64514     17.98125     10.39361         0.104894     -0.015497      0.101029
Au     14.76001     20.66513     11.92637         0.037323     -0.120855     -0.043357
Au     17.27005     17.14156      9.96099         0.018889     -0.002780     -0.087352
Au     17.36041     19.64066     11.34386        -0.031992     -0.037924     -0.045239
Au     16.80246     21.14515     13.86864         0.055488     -0.008230     -0.008120
Au     19.32280     17.63369     11.93345        -0.026172     -0.020316      0.077907
Au     14.65134     16.21776      9.37407        -0.007116      0.010606      0.018459
Au     15.16809     19.03550      9.57670         0.033883     -0.138855      0.179070
Au     19.37346     20.07166     13.30780        -0.151010     -0.138127      0.050813
Au     17.13053     18.31115     13.91567         0.041085     -0.329691      0.037441
Au     14.97002     17.77900     12.07254        -0.024786     -0.026596      0.013775
Au     12.84924     15.58971     16.75564        -0.092889     -0.166796      0.043933
Au     11.22183     13.29510     16.50365         0.020214     -0.022716     -0.128214
Au     12.51447     10.74460     16.32381         0.054931      0.126856     -0.109415
Au     12.88476     13.51281     18.79572         0.122839      0.049564     -0.062053
Au     14.15131     15.92526     19.36574        -0.085994      0.070496      0.034505
Au     10.63818     15.70757     15.06012        -0.147304     -0.064999      0.004617
Au     14.22787     12.91266     16.37427        -0.052033      0.210236     -0.309924
Au     17.78106     15.89098     15.27855        -0.135774      0.219496     -0.202242
Au     14.51589     11.19672     18.50884         0.082548      0.146418     -0.007427
Au     15.63202     15.25061     16.92317        -0.086606      0.050814     -0.179007
Au     20.40434     15.27207     16.14553         0.043655     -0.062980      0.056577
Au     15.87295     13.66090     19.17196         0.030479      0.001154      0.036738
Au     15.28321     10.12468     16.03477        -0.006783      0.150431     -0.006049
Au     18.28060     14.50210     17.83196         0.110628     -0.074416      0.014537
Au     16.95092     12.18026     16.97475         0.160903     -0.148359      0.094629
Au     18.77141     13.21177     15.13168         0.047191     -0.174764      0.047472
Au     12.28838     17.99686     15.34299        -0.243191      0.207284      0.028562
Au     13.53180     19.89805     17.01280         0.061414     -0.015400      0.097382
Au     12.30425     17.78091     18.23100         0.063855      0.150301      0.127900
Au     18.56810     19.80837     15.97925         0.059429     -0.005759      0.065305
Au     16.00515     18.00802     16.56079         0.061748      0.154490      0.015212
Au     16.07193     20.92136     16.58137        -0.024024     -0.209863      0.029732
Au     19.02689     17.35256     17.43480         0.084742      0.075153      0.127581
Au     14.73335     16.49758     14.55133         0.115264     -0.000269     -0.019080
Au     14.87507     18.62837     19.13988        -0.042710     -0.094762     -0.159483
Au     16.89353     16.57108     19.14137         0.019791      0.087337      0.048409
Au     17.48663     19.40553     18.56339        -0.043884     -0.203238     -0.184881
Au     14.58135     19.50509     14.50249        -0.184956      0.174563      0.135995
Au     20.03047     17.70204     14.73862        -0.006679      0.027933     -0.021757
