58
# total energy = -161.58147633 eVAu     10.59294     15.03809     12.84770         0.016211      0.014080      0.030672
Au     11.60743     13.06931     10.87831        -0.030435     -0.015577      0.018092
Au     13.23452     13.84159     12.92034         0.016603     -0.039441      0.041997
Au     12.39282     10.78087     12.31812         0.003179     -0.012591      0.003121
Au     13.81458     13.99210      9.37513         0.014172     -0.008962      0.002496
Au     11.99020     15.84102     10.56026         0.076593      0.021966      0.095206
Au     18.97863     13.23731     13.63460         0.005845      0.028058     -0.029824
Au     18.45818     13.93615     10.81810         0.015363     -0.001600     -0.017475
Au     16.65261     15.42710      9.08194         0.034451     -0.017982     -0.018289
Au     14.44861     11.70832     10.89254         0.003119     -0.044199      0.028810
Au     14.98471     10.61224     13.46315         0.002834     -0.004617      0.009647
Au     16.47196     12.69649      9.37986        -0.015929     -0.001255     -0.002679
Au     17.61957     15.70352     12.97080         0.025974     -0.027201      0.014733
Au     20.40577     15.28095     12.23034         0.007069     -0.006634     -0.017327
Au     15.59167     14.35842     11.58137         0.040523     -0.002542     -0.001049
Au     17.06636     11.84335     12.13290         0.008629     -0.026219      0.010491
Au     11.63098     17.59364     12.81039        -0.006403      0.055624     -0.027541
Au     13.19776     19.95585     12.93235         0.022247     -0.038532      0.001701
Au     12.86479     18.48673     10.57336        -0.030686      0.012950     -0.038538
Au     15.15593     19.94940     10.88393        -0.000279      0.056118     -0.018683
Au     16.55288     18.16726     13.75874         0.018866      0.027487      0.015205
Au     17.82413     19.31519     11.42126        -0.005184      0.027931     -0.002945
Au     14.41975     16.15482     13.72371        -0.015984     -0.016277     -0.004205
Au     15.82938     20.88334     13.39685         0.042501      0.011651      0.011681
Au     18.70026     16.79215     10.48962         0.010705     -0.008874     -0.009875
Au     14.14509     16.70183      8.91393        -0.006739     -0.006847      0.002655
Au     16.59262     18.21467      9.13437        -0.015025      0.003481     -0.025657
Au     15.42655     17.15264     11.40466        -0.047096     -0.027218      0.018167
Au     19.62812     17.83456     13.04775         0.013042     -0.010013     -0.023082
Au     11.85252     16.21333     15.18166        -0.023680      0.038958      0.027399
Au     13.45584     11.84797     18.01129         0.008622     -0.024405      0.027858
Au     10.81837     12.43532     13.78953        -0.036332      0.000150      0.001954
Au     12.56656     10.37775     15.03797        -0.027370     -0.011998     -0.004826
Au     13.64972     12.90962     15.45199         0.011638     -0.013918     -0.029065
Au     11.92527     14.66907     17.58589        -0.017067      0.038795      0.004974
Au      9.87071     14.39778     15.52227        -0.012280     -0.003564     -0.006280
Au     11.12047     12.18977     16.59879        -0.029486     -0.008577     -0.044942
Au     14.46866     15.32141     16.47720        -0.010521      0.008620      0.006590
Au     19.89647     15.64946     14.92182        -0.000599     -0.012183     -0.001216
Au     16.91339     15.07950     18.44924        -0.011461     -0.013938     -0.011894
Au     16.18156     12.55740     17.52081         0.014126     -0.004052     -0.024093
Au     15.07460     10.38752     16.23526        -0.003194     -0.011716     -0.018957
Au     14.34769     14.21248     19.06586        -0.019198     -0.014047      0.000279
Au     16.00858     13.84550     14.37916         0.024656     -0.015768     -0.010613
Au     17.31287     11.43063     14.99595         0.023667      0.004417     -0.019084
Au     18.44697     13.64848     16.36590         0.009703      0.007437     -0.000877
Au     11.93807     18.98508     15.23112         0.001129      0.007653      0.019086
Au     12.57112     17.46596     17.60338        -0.036185      0.009443     -0.016596
Au     19.03399     18.25679     15.81761        -0.013757      0.009889      0.000874
Au     14.60534     18.00669     15.70585        -0.022430     -0.006130      0.004847
Au     16.74507     20.02770     16.08509         0.021165      0.005476     -0.014222
Au     19.30820     16.10093     17.57306         0.003533      0.010207     -0.004224
Au     14.87267     16.91213     19.08974        -0.009021     -0.014125     -0.010652
Au     14.72522     19.48650     18.01656        -0.055843      0.024656      0.016315
Au     18.52216     20.25349     13.95239        -0.032996      0.027573      0.000746
Au     17.18953     17.97426     17.98510         0.016711     -0.002952      0.014827
Au     14.04418     20.75127     15.53595         0.005937      0.009963      0.025222
Au     17.02670     16.14729     15.72679         0.016367      0.011371     -0.000937
