58
# total energy = -161.38289034 eVAu     10.59308     14.97147     12.84877         0.044193      0.051107     -0.002718
Au     11.72248     13.10186     10.79255        -0.086393      0.052247     -0.008903
Au     13.21090     13.80320     12.98246         0.089491      0.060717     -0.001438
Au     12.36184     10.88022     12.30968        -0.008115     -0.075539      0.102547
Au     13.89921     14.03900      9.26235        -0.038441      0.027690      0.016028
Au     12.13182     15.84774     10.62608        -0.038052     -0.082038      0.012760
Au     18.92740     13.25409     13.62196         0.012767      0.061231     -0.028514
Au     18.43056     13.93965     10.77729         0.112122      0.054789      0.133082
Au     16.68964     15.42135      9.01951        -0.040356      0.117363      0.016561
Au     14.43263     11.71918     10.84362         0.056951      0.006059      0.011911
Au     14.94880     10.62001     13.44168        -0.005525      0.063273      0.022503
Au     16.47348     12.69873      9.33027        -0.045487     -0.081955      0.020267
Au     17.55766     15.69518     12.95847         0.014768     -0.043604      0.054456
Au     20.37046     15.28593     12.23241        -0.080950     -0.059536     -0.039864
Au     15.54625     14.38644     11.52980        -0.017135      0.006917      0.077717
Au     17.02796     11.85806     12.10082        -0.009676     -0.000705      0.040839
Au     11.55009     17.56837     12.79843         0.005937     -0.101504      0.050104
Au     13.48744     19.52740     13.02646        -0.065270      0.217634     -0.028900
Au     12.80836     18.51983     10.53798         0.078481      0.020903      0.000265
Au     15.17600     19.97680     10.78716        -0.061619     -0.008397      0.086074
Au     16.57816     18.21424     13.74378        -0.030261     -0.093913      0.032312
Au     17.83451     19.36607     11.40089         0.001295     -0.002312     -0.023337
Au     14.44746     16.18370     13.65933         0.024104     -0.053138      0.054246
Au     15.88913     20.92052     13.35414        -0.111243      0.028877     -0.039640
Au     18.69138     16.80405     10.49412        -0.011186     -0.018809     -0.030621
Au     14.20625     16.78401      8.89831        -0.047224     -0.064705     -0.021582
Au     16.66599     18.23695      9.08063        -0.008449     -0.040883      0.002819
Au     15.45850     17.21012     11.36395         0.020781     -0.036803      0.037639
Au     19.57489     17.84327     13.03794         0.044053      0.040568     -0.010882
Au     12.02163     16.07659     15.13403        -0.116739      0.014725     -0.001845
Au     13.46803     11.86927     18.11676        -0.040243      0.022999     -0.030386
Au     10.72587     12.39760     13.87642         0.086091      0.028975     -0.047804
Au     12.49776     10.36444     15.01797         0.029486      0.027046     -0.026396
Au     13.52772     12.92284     15.53716         0.107121      0.004836     -0.066506
Au     11.93460     14.60961     17.63619         0.044075      0.091329      0.044483
Au      9.90235     14.41235     15.59912         0.009387      0.048225     -0.085712
Au     11.08339     12.14216     16.68844        -0.004394     -0.104960     -0.007242
Au     14.50023     15.29003     16.53154         0.017807      0.057073     -0.075819
Au     19.84302     15.67992     14.91028        -0.011832     -0.072375      0.056177
Au     16.90261     15.09769     18.44970         0.072780      0.011131     -0.008404
Au     16.20833     12.53188     17.61880        -0.037517      0.007736     -0.104052
Au     14.99893     10.48211     16.21880         0.073585     -0.033277     -0.017353
Au     14.36658     14.24654     19.14888        -0.052966     -0.088098     -0.025284
Au     15.89535     13.82949     14.36297         0.041378      0.002328      0.040155
Au     17.27585     11.46860     14.98637        -0.076906      0.019575      0.018004
Au     18.41126     13.66969     16.37219         0.004226      0.029109     -0.022821
Au     11.93270     18.87341     15.27006         0.059811      0.027160     -0.011053
Au     12.57502     17.38040     17.62044         0.015069      0.014414     -0.038808
Au     19.00514     18.29143     15.80776         0.013656      0.034348      0.005736
Au     14.64007     17.97322     15.72052        -0.039527     -0.059076     -0.043454
Au     16.75082     20.06100     16.07987        -0.043235     -0.028888      0.047576
Au     19.29081     16.15422     17.57468        -0.024258     -0.073918     -0.040235
Au     14.88402     16.93579     19.16182        -0.003072      0.062744     -0.060254
Au     14.65811     19.47412     18.00608         0.056924      0.000091      0.032142
Au     18.53800     20.31303     13.94440         0.102252     -0.033108      0.025118
Au     17.17176     18.00489     17.99630        -0.058106      0.023184     -0.009392
Au     14.05411     20.70805     15.51759        -0.015068     -0.000451      0.003381
Au     17.01489     16.17221     15.72362        -0.009345     -0.078409     -0.085684
