58
# total energy = -161.37447179 eVAu     10.11811     13.79028     12.74266        -0.024114      0.002260     -0.003339
Au     11.69757     14.08847     10.40725        -0.014323     -0.019276     -0.007330
Au     12.01703     11.75528     11.96793        -0.014454     -0.016800     -0.023120
Au     12.47829     15.69483     12.86273         0.005194      0.023290     -0.024917
Au     16.86355     12.63241     12.30278        -0.002570     -0.000905      0.020615
Au     14.17209     13.67462     11.89902         0.020496      0.002689     -0.014265
Au     16.72496     14.69179     10.30916        -0.029584     -0.008325     -0.013475
Au     15.40610     12.29635      9.81045         0.008823     -0.000650      0.007543
Au     18.27274     15.01005     12.67960        -0.023882      0.003783      0.046358
Au     14.10044     14.71501      9.20299         0.000068     -0.026261     -0.036115
Au     14.69537     10.85314     12.07590        -0.010140      0.003769     -0.000806
Au     10.04373     16.17808     11.28951        -0.010750     -0.005774     -0.003709
Au      9.80473     16.32270     14.03635        -0.027710     -0.013711     -0.011089
Au     11.33127     18.29715     12.60303        -0.018020      0.014333     -0.008521
Au     12.96857     20.02923     14.03846        -0.006927     -0.001743      0.002257
Au     12.50936     16.86566     10.18914        -0.011349     -0.003346     -0.014637
Au     13.55738     19.21138     11.23583        -0.021255     -0.026446      0.008665
Au     17.75164     17.14913     10.89322         0.000723      0.009236      0.002024
Au     18.68196     19.62194     11.64065         0.015527      0.008554     -0.003022
Au     15.07113     21.09908     12.62012         0.008936      0.006077     -0.006032
Au     19.26427     17.48599     13.39587         0.004160      0.018406      0.011595
Au     15.17372     17.24883      9.50055         0.002420     -0.001914     -0.002590
Au     16.19494     19.59281     10.49147         0.021179     -0.004555     -0.011656
Au     17.61506     21.20328     13.72609         0.026198     -0.000564      0.007444
Au     16.39137     18.62935     13.17495         0.018407      0.035150     -0.031176
Au     15.23164     16.31061     12.12833        -0.014887      0.003538      0.007169
Au     20.19542     20.08110     13.89032         0.041057      0.029697      0.015809
Au     12.31921     15.66121     15.73737        -0.012953      0.022237     -0.011465
Au     13.19710     12.60063     19.05612        -0.002839     -0.015754     -0.006648
Au      9.93792     13.91865     15.60227        -0.007758      0.016282     -0.000108
Au     13.14349     10.47708     14.35279         0.010668     -0.010954     -0.002390
Au     12.76552     13.26207     14.36374        -0.025247      0.023025     -0.005056
Au     10.51008     11.50104     14.31604        -0.006400     -0.011079     -0.012494
Au     11.24971     14.49059     18.18726         0.007801     -0.023080      0.006899
Au     11.64293     12.03086     16.79699         0.000810     -0.013505      0.018605
Au     14.27240     13.74377     16.76620        -0.007135     -0.069522      0.030313
Au     19.35258     15.51099     15.29908         0.038255     -0.030135      0.001568
Au     15.82977     13.65742     19.17567         0.001999      0.010423     -0.013688
Au     14.18506     10.90200     16.91215         0.018422      0.004425      0.002722
Au     13.61851     15.39232     19.43227        -0.019681     -0.000562      0.044788
Au     15.84284     11.25070     14.58138        -0.004742      0.008820      0.022193
Au     15.16392     14.73747     14.39156         0.018032      0.017173     -0.006108
Au     17.88808     14.49651     17.46075         0.002400     -0.002843      0.014626
Au     16.69021     12.05220     17.08514         0.011383     -0.006643      0.020738
Au     17.72438     13.30441     14.84902         0.032725     -0.010153      0.005859
Au     11.25320     18.33374     15.44872        -0.008016      0.017767     -0.001857
Au      9.68080     16.40534     16.79242        -0.003668     -0.005454      0.005268
Au     11.91620     17.29329     18.13221         0.019978      0.012263      0.016633
Au     18.23179     19.29703     15.69771         0.014554      0.001430     -0.000159
Au     14.75580     16.46767     16.96113         0.007070     -0.009237     -0.023682
Au     16.87718     16.76086     15.14163        -0.009530     -0.020198     -0.028523
Au     15.50938     20.39384     15.35999        -0.007945      0.046293      0.012869
Au     18.53360     17.17603     17.45222         0.004806     -0.003960     -0.023554
Au     14.10528     17.49493     14.41976        -0.015756      0.043901      0.027356
Au     14.27317     18.11722     19.30177        -0.005907     -0.010828     -0.005826
Au     13.48848     19.26961     16.82171        -0.022648     -0.015391      0.018492
Au     16.48762     16.35823     19.16472         0.027771      0.001861     -0.019607
Au     16.28104     18.89774     17.59779         0.000329      0.002889     -0.001446
