58
# total energy = -161.36610225 eVAu     10.11666     13.79073     12.74271        -0.008767     -0.027000     -0.010133
Au     11.69645     14.08793     10.40132        -0.003683     -0.025720      0.020753
Au     12.01273     11.74776     11.96963        -0.009814      0.017625     -0.028413
Au     12.47869     15.68829     12.86327         0.022198      0.003244     -0.023612
Au     16.86565     12.63361     12.29606         0.004197     -0.004069      0.029994
Au     14.17003     13.66749     11.89640        -0.001568      0.012173      0.028976
Au     16.73486     14.68591     10.30175        -0.002541      0.041059      0.011263
Au     15.40618     12.29832      9.80967         0.007442     -0.033599     -0.001021
Au     18.29060     15.00632     12.67202        -0.046543      0.019072      0.023868
Au     14.10786     14.72001      9.21049        -0.029331     -0.023652     -0.047036
Au     14.69580     10.85127     12.07866        -0.021058      0.007067     -0.011517
Au     10.04569     16.17835     11.29461        -0.012808     -0.009298     -0.044260
Au      9.81374     16.32256     14.03362        -0.041876     -0.001747      0.053513
Au     11.34513     18.29412     12.60191        -0.057608      0.015269      0.015091
Au     12.96332     20.03326     14.04623         0.027357     -0.007554     -0.011361
Au     12.50793     16.86920     10.19239         0.000337     -0.015556     -0.023393
Au     13.54899     19.22228     11.23020         0.031499     -0.010003     -0.002357
Au     17.75404     17.15273     10.88718        -0.022117     -0.059493     -0.000745
Au     18.68093     19.62017     11.63380         0.029456      0.041984      0.008225
Au     15.06595     21.09943     12.62556         0.021823     -0.013115     -0.016044
Au     19.26068     17.49012     13.39145        -0.000352     -0.030973      0.036969
Au     15.17195     17.25391      9.50117         0.001102     -0.000491     -0.010701
Au     16.19382     19.59444     10.48985        -0.008476      0.018229      0.000362
Au     17.61537     21.19335     13.72973         0.022168      0.003261     -0.007083
Au     16.39028     18.62481     13.16697        -0.001461      0.014522     -0.001051
Au     15.23424     16.29987     12.12038        -0.008834      0.019382      0.018604
Au     20.19542     20.07609     13.88460         0.044981      0.041872      0.025508
Au     12.32542     15.65777     15.74319        -0.018430      0.010611     -0.013535
Au     13.19366     12.60496     19.05401        -0.010046     -0.023273      0.018135
Au      9.93511     13.91767     15.60049         0.005277      0.024263      0.009228
Au     13.13643     10.47477     14.35617         0.040301     -0.011514     -0.006632
Au     12.76477     13.25812     14.36773         0.015777      0.053002     -0.004062
Au     10.50701     11.49840     14.31933        -0.017267     -0.000821     -0.029091
Au     11.24535     14.49205     18.18748         0.022917     -0.024556      0.006882
Au     11.64070     12.02739     16.79698        -0.000650      0.003256      0.027400
Au     14.28340     13.74051     16.77466        -0.007958      0.024285     -0.059205
Au     19.35247     15.51005     15.29714         0.011459      0.009309      0.005667
Au     15.83300     13.65012     19.18155        -0.020392      0.017772      0.004774
Au     14.18640     10.90632     16.91327         0.006047     -0.018269     -0.006047
Au     13.62013     15.39533     19.43390        -0.031891     -0.023388      0.036623
Au     15.83912     11.25807     14.57842        -0.008782      0.005097      0.026210
Au     15.16939     14.74322     14.39118        -0.039295     -0.025790      0.022506
Au     17.85829     14.50296     17.44929         0.057897      0.037115      0.000853
Au     16.69289     12.04940     17.08166         0.016728     -0.018434      0.013738
Au     17.72347     13.30907     14.84005         0.025229     -0.030931      0.023576
Au     11.25778     18.33253     15.45057        -0.037756     -0.010643     -0.000052
Au      9.67610     16.40286     16.79389         0.025434      0.004011     -0.022730
Au     11.91607     17.29619     18.13066         0.002754     -0.007069      0.016175
Au     18.24020     19.29917     15.70866         0.004860     -0.004862     -0.017543
Au     14.75763     16.47866     16.96696        -0.028888     -0.072583     -0.066783
Au     16.87419     16.76768     15.15082         0.025538     -0.003402     -0.048143
Au     15.51035     20.39601     15.36064        -0.008312      0.031475      0.014916
Au     18.53246     17.17524     17.46104        -0.003096     -0.018752     -0.029972
Au     14.10183     17.48962     14.41367         0.002436      0.061398      0.023068
Au     14.27266     18.11840     19.30122        -0.019256      0.018595      0.022313
Au     13.49119     19.26844     16.82196        -0.021452      0.004178      0.017264
Au     16.47759     16.35921     19.17429         0.063564     -0.015706     -0.020785
Au     16.28163     18.90151     17.59943         0.011527      0.013142      0.000850
