58
# total energy = -160.93070911 eVAu     10.65699     14.90941     12.82621         0.065476     -0.008621      0.127171
Au     11.77378     13.15428     10.76143        -0.048744     -0.001517     -0.026352
Au     13.28917     13.68007     13.04190        -0.103645      0.175654     -0.150224
Au     12.25801     10.90418     12.29897         0.130608     -0.094302     -0.012375
Au     13.98458     14.04510      9.13567        -0.057602      0.088507      0.057888
Au     12.64857     15.77563     10.93193        -0.231374      0.178173     -0.138437
Au     18.90020     13.25575     13.60024        -0.115322      0.006162      0.042302
Au     18.43421     13.95465     10.75893        -0.235729     -0.090326     -0.066496
Au     16.65859     15.46613      8.97203         0.084872     -0.127754      0.100944
Au     14.36370     11.74984     10.80292         0.035270     -0.050658      0.106395
Au     14.81007     10.89506     13.53164         0.031286     -0.129375     -0.032638
Au     16.46539     12.67088      9.32317         0.138676      0.115000      0.091103
Au     17.53417     15.71629     12.92951         0.102993     -0.134913      0.027541
Au     20.29709     15.31885     12.18809         0.059859      0.066575      0.088533
Au     15.53436     14.41690     11.48969         0.033853     -0.111374     -0.064270
Au     16.96433     11.85977     12.09998         0.085218      0.132890     -0.023949
Au     11.57255     17.50443     12.84901         0.115358      0.071271     -0.073559
Au     13.79375     19.17379     13.09219        -0.191030      0.070158     -0.033280
Au     12.82366     18.54493     10.53708        -0.011368     -0.148379      0.091031
Au     15.14465     20.06057     10.75654         0.004819     -0.029590      0.036301
Au     16.67118     18.26177     13.75714        -0.135128      0.009638     -0.019652
Au     17.79875     19.47213     11.37612         0.048718     -0.094779      0.006074
Au     14.58745     16.16112     13.60080        -0.276246      0.095717      0.248792
Au     15.93012     20.99618     13.31835        -0.090238     -0.056667     -0.014959
Au     18.62909     16.87155     10.45042        -0.002159     -0.050234      0.051430
Au     14.22051     16.85960      8.80785        -0.088929     -0.068567      0.115889
Au     16.64363     18.32374      9.01701         0.065706     -0.005346     -0.004421
Au     15.54380     17.26282     11.30756        -0.063223      0.059238     -0.040061
Au     19.57450     17.91472     12.98349        -0.010623     -0.097409      0.022170
Au     12.15828     15.92886     15.11361        -0.139391     -0.053827     -0.025300
Au     13.37766     11.85591     18.20984         0.010957     -0.047316     -0.118099
Au     10.72829     12.38675     13.97302        -0.048524      0.067741     -0.126881
Au     12.40298     10.33175     15.02971         0.099020      0.010343      0.024902
Au     13.40185     12.90756     15.62526         0.106762     -0.042480      0.067654
Au     11.93086     14.50098     17.75663         0.020242      0.173318     -0.110111
Au      9.93593     14.37504     15.67230         0.098350      0.265433     -0.107443
Au     10.96842     12.05013     16.78697         0.090958     -0.116400      0.049261
Au     14.52153     15.23374     16.60934         0.088682      0.130242     -0.155525
Au     19.84581     15.69810     14.87879        -0.050836     -0.009871     -0.031753
Au     16.89385     15.12660     18.46270        -0.042268     -0.020547     -0.065920
Au     16.04664     12.63611     17.45216         0.139171     -0.004372      0.022783
Au     14.89845     10.40748     16.29154         0.029926      0.118421     -0.084265
Au     14.37512     14.20789     19.22899         0.034185      0.096572      0.038560
Au     15.83321     13.79280     14.39179         0.215678     -0.086232      0.098479
Au     17.21246     11.45088     15.01349        -0.030950      0.165716     -0.024723
Au     18.41446     13.67459     16.36182        -0.099415      0.021470     -0.067400
Au     11.99726     18.79750     15.28512         0.010335      0.009920     -0.044912
Au     12.53109     17.27944     17.58507        -0.009783      0.007699     -0.014737
Au     18.99497     18.35149     15.78990        -0.015437     -0.041731      0.012779
Au     14.70218     17.92683     15.74292        -0.050611     -0.166854     -0.110926
Au     16.73548     20.14932     16.05702         0.062956     -0.087189      0.055163
Au     19.23214     16.18523     17.51898         0.028858      0.002283      0.037214
Au     14.81856     16.94603     19.13879         0.074449     -0.094928      0.040960
Au     14.55743     19.47575     17.97366         0.045613      0.041145      0.018385
Au     18.58222     20.37735     13.93897         0.061861      0.009248      0.019809
Au     17.06892     18.03888     17.92419         0.082080     -0.023233     -0.004873
Au     14.06726     20.67850     15.46393        -0.056107      0.038253      0.013040
Au     17.03113     16.15837     15.66726        -0.098117     -0.131992      0.080984
