58
# total energy = -160.33448677 eVAu     10.86834     15.09388     13.17072        -0.141078     -0.127396     -0.047536
Au     12.24696     13.77579     10.94036        -0.009624     -0.053247     -0.046787
Au     13.27978     13.71913     13.76935        -0.281020     -0.306502      0.494451
Au     13.40355     11.36225     12.01728        -0.073819      0.205749      0.151880
Au     13.66277     15.27415      9.07832         0.043516      0.034696      0.125478
Au     10.77642     12.29240     12.73021         0.195437      0.062639      0.200883
Au     18.18563     12.71670     14.35868         0.218749     -0.026105      0.128222
Au     14.68673     10.86242     14.44042        -0.021159     -0.165034     -0.160321
Au     17.45670     14.03249     10.94832         0.106370      0.090403     -0.240813
Au     17.06321     15.35864     13.56581        -0.068429      0.216764     -0.112510
Au     19.56837     14.57343     12.68453        -0.012365     -0.005357      0.096573
Au     14.95137     12.93934     10.11012        -0.071469      0.100348     -0.016646
Au     14.68214     15.06182     11.92459         0.339678      0.478515     -0.460472
Au     15.96438     12.52993     12.68304         0.040075     -0.445222     -0.110586
Au     12.05333     17.49574     13.76203        -0.227280      0.138731     -0.117948
Au     13.02705     19.20985     11.86441        -0.024833     -0.050883     -0.212583
Au     12.22755     16.57957     11.17189        -0.133292      0.063581     -0.162497
Au     14.16005     17.99612      9.65009         0.059234     -0.111544      0.132683
Au     18.32592     16.76940     11.30211         0.053368     -0.026883     -0.201953
Au     16.26201     16.08008      9.55008        -0.056327     -0.001129      0.076229
Au     15.49463     20.48720     12.00445         0.063449     -0.080251     -0.016097
Au     14.22402     19.27222     14.37519        -0.226814      0.265276     -0.072336
Au     16.58929     20.86863     14.56412         0.041946     -0.135713      0.042724
Au     18.10162     19.37412     12.43506         0.000928      0.030702     -0.055921
Au     16.82149     18.85069     10.00605        -0.083411     -0.169532      0.111294
Au     15.55199     17.68451     12.29001        -0.103181     -0.233393     -0.170196
Au     19.56410     17.20941     13.76896         0.062275      0.001931      0.037195
Au     14.52156     16.21491     14.58556         0.233327      0.046277     -0.062292
Au     12.96935     11.84547     19.26292        -0.041944      0.082562     -0.126810
Au     10.48905     13.27717     15.38389         0.005194     -0.091891     -0.081505
Au     11.97609     10.74244     14.70058         0.038072      0.118450     -0.044797
Au     13.18358     12.85275     16.44644         0.181850      0.041914     -0.267672
Au     11.33247     14.01539     18.15972        -0.052478     -0.053225      0.037121
Au     13.98463     10.26398     17.08124         0.036092      0.147165      0.001460
Au     13.79443     14.42443     19.85620         0.033872     -0.030786     -0.093198
Au     11.91977     15.59137     15.81242        -0.322398      0.056623      0.103125
Au     11.05296     11.23495     17.30304         0.067008      0.067741     -0.041981
Au     14.39199     15.24856     17.26594         0.156503     -0.070519     -0.130401
Au     19.25365     15.40919     18.27868         0.024313      0.051809      0.085384
Au     15.48289     12.50258     18.30772         0.147316     -0.196913      0.120865
Au     19.60798     14.93999     15.48383         0.155193     -0.027017     -0.035192
Au     16.64118     14.85078     19.23286         0.007314      0.016337      0.095406
Au     15.70380     13.55738     15.32430        -0.421716     -0.143788      0.204237
Au     17.07003     15.78642     16.45361        -0.229531      0.297896      0.038865
Au     16.71838     11.00193     16.22457        -0.001042      0.128497      0.031439
Au     18.04577     13.19731     17.20670        -0.009732     -0.170670      0.082482
Au     12.45786     18.30002     16.31252        -0.195126      0.178274      0.039922
Au     13.18939     19.18965     18.76692         0.278513      0.019645      0.070804
Au     12.22689     16.58736     18.55601         0.002560     -0.038211      0.079188
Au     19.34878     17.61645     16.57952         0.042270      0.057687      0.002359
Au     15.18968     17.91853     16.96533         0.204163     -0.113959      0.009807
Au     16.93853     18.01610     14.70909         0.023662     -0.097302      0.214890
Au     17.52611     19.82272     17.05151         0.004490     -0.010932      0.104602
Au     14.85339     17.00092     19.74577         0.049017      0.123070     -0.066027
Au     17.57687     17.53803     18.85683         0.002723      0.106458      0.088850
Au     19.26715     19.82976     14.88724        -0.094448     -0.065065      0.074800
Au     15.89851     19.69381     19.30490        -0.100752     -0.151621     -0.100618
Au     14.71324     20.62998     16.73383         0.084792     -0.029651      0.172477
