58
# total energy = -161.20080224 eVAu     10.32810     15.04794     13.93749        -0.020720     -0.009489      0.002912
Au     12.15694     14.74003     11.77702        -0.007656     -0.019906      0.023659
Au     12.64100     11.92543     11.27272         0.007374      0.023038     -0.010354
Au     13.59831     10.43612     13.37971        -0.001907      0.001176     -0.004468
Au     14.51035     13.16061     14.06258        -0.005061     -0.012711     -0.008783
Au     11.61177     12.58677     13.72163        -0.009236     -0.010334      0.013625
Au     13.00592     15.49047     14.52257         0.003435      0.008950     -0.023635
Au     17.58420     12.88238     13.52065        -0.008682     -0.013583     -0.003788
Au     18.96042     15.13107     12.36523        -0.009261     -0.003372      0.023045
Au     15.02910     15.41625     12.52240         0.021611      0.019507     -0.009736
Au     17.03222     13.84005     10.92359         0.020141     -0.023099      0.012953
Au     14.79946     16.39753      9.90909        -0.021656      0.028273     -0.031044
Au     14.35409     13.74792     10.27806        -0.001200      0.023960     -0.010144
Au     15.58564     11.71624     11.92165        -0.013329     -0.006703      0.008182
Au     11.22939     17.70213     13.87267        -0.029244      0.022430      0.024715
Au     13.14110     19.71940     13.59783         0.014263     -0.034690     -0.006232
Au     12.92616     17.42672     11.72393        -0.027965     -0.011610      0.018619
Au     14.44959     19.70085     11.15567         0.011205     -0.034365      0.016280
Au     17.70340     16.34071     10.08880         0.006553      0.004353     -0.006680
Au     17.30570     20.28704     11.11279        -0.018276      0.006314     -0.010347
Au     14.88975     17.64072     14.44181         0.013381      0.014923     -0.017858
Au     15.85856     20.55887     13.50438        -0.007033      0.011192      0.005446
Au     19.22187     17.90858     11.84156         0.007277     -0.010141     -0.014528
Au     16.22914     18.60708      9.22696         0.018197      0.001904     -0.008492
Au     18.71615     20.14127     13.40418         0.001994      0.003812     -0.007385
Au     17.83120     17.37060     14.44395         0.005917      0.018152      0.017574
Au     20.52351     16.76244     14.05084         0.006370      0.003800      0.011413
Au     16.35065     17.83172     12.09734         0.037894      0.003540     -0.006685
Au     11.22990     13.61299     16.26944         0.002903      0.021873     -0.011041
Au     13.04917     11.34078     15.88182         0.006461      0.012243     -0.015214
Au     12.06163     15.03664     18.58949         0.005017     -0.035724     -0.019592
Au     12.57501     12.28588     18.38411        -0.002335     -0.000217      0.017250
Au     16.46170     15.43244     17.77254        -0.035461      0.001192     -0.001490
Au     14.42800     13.87610     19.65273        -0.020229      0.015130     -0.019288
Au     14.21392     14.01195     16.72747        -0.002909     -0.017915      0.004422
Au     16.46907     15.47702     20.60832        -0.013414     -0.002739      0.001199
Au     17.04952     13.04698     19.13524         0.007215      0.001088      0.011057
Au     15.28083     11.52073     17.59653         0.023178      0.004069      0.008548
Au     15.93066     10.92925     14.86269        -0.002089     -0.012476      0.000786
Au     16.23869     15.18355     15.04247         0.022743     -0.008049      0.003571
Au     19.22635     14.18596     17.84683        -0.015716     -0.008654     -0.005825
Au     17.55809     12.58340     16.33639         0.008848     -0.015798      0.000736
Au     19.20078     14.50528     15.08129         0.011121     -0.009530     -0.023421
Au     12.22205     19.00265     16.14654         0.003741      0.001928      0.006878
Au     13.85559     16.75982     16.93866         0.021861      0.009839      0.006747
Au     14.04572     19.17159     18.49506        -0.020089      0.000762     -0.019236
Au     14.00392     16.69414     19.90951        -0.009293      0.008965      0.003017
Au     10.86830     16.42999     16.34422        -0.002365     -0.007279      0.014757
Au     11.67099     17.78766     18.62402        -0.002713      0.013241      0.014996
Au     18.71212     18.98308     18.04913         0.007571      0.002282      0.007776
Au     16.39396     18.01114     16.78800        -0.013943     -0.007706      0.017243
Au     17.49597     20.55352     15.81693         0.005061      0.011587     -0.003845
Au     18.65059     16.50366     19.27645         0.018803      0.006416      0.023811
Au     16.40850     18.16073     19.76090        -0.009067     -0.000610     -0.001095
Au     19.87511     16.64484     16.78839         0.012309      0.020322     -0.005391
Au     16.38374     20.57513     18.33296         0.007857     -0.007150      0.001119
Au     14.66945     20.32061     15.98035        -0.013392      0.002381      0.008696
Au     19.95060     19.11293     15.57988         0.003940     -0.004792     -0.025433
