58
# total energy = -161.61648481 eVAu     10.62390     15.07244     12.89141         0.016602      0.015653     -0.011403
Au     11.56993     13.06375     10.92987        -0.005458      0.027221     -0.018951
Au     13.26759     13.80269     12.91994        -0.002300     -0.038980     -0.006335
Au     12.38689     10.74950     12.32504        -0.024913      0.017261      0.033352
Au     13.80701     13.95877      9.43019         0.000715     -0.020090      0.003856
Au     12.07864     15.84058     10.66252         0.012245      0.004304     -0.000526
Au     18.99981     13.23733     13.61375         0.009235      0.019080      0.011171
Au     18.47472     13.92675     10.79967         0.009336      0.020451      0.033331
Au     16.67744     15.42173      9.07394        -0.019958     -0.007811      0.010418
Au     14.46000     11.66574     10.92367         0.039757      0.027248     -0.045574
Au     14.99118     10.60364     13.47194         0.012516     -0.024080      0.002954
Au     16.45646     12.69095      9.39338        -0.000778     -0.007492     -0.001304
Au     17.65055     15.70720     12.97674         0.001096     -0.024405     -0.014885
Au     20.42631     15.28344     12.20939        -0.022465      0.001101      0.002170
Au     15.63379     14.35003     11.59481         0.000780      0.024442     -0.011713
Au     17.09239     11.81639     12.13333        -0.007939      0.008021     -0.006525
Au     11.64019     17.65932     12.80845        -0.014507     -0.045301      0.029099
Au     13.18792     20.00465     12.92149         0.045762     -0.030218      0.017412
Au     12.86116     18.51842     10.53936         0.012668     -0.014910      0.013306
Au     15.14933     19.97872     10.89205         0.008908     -0.011402     -0.016201
Au     16.55291     18.15479     13.75806        -0.027268      0.035975      0.017490
Au     17.80809     19.31393     11.41691         0.005338      0.000249      0.015139
Au     14.40870     16.12417     13.74541        -0.017960      0.033093      0.030707
Au     15.83006     20.88536     13.41300         0.037189     -0.002312     -0.010756
Au     18.70040     16.79513     10.47871         0.000430     -0.005032      0.008195
Au     14.14233     16.66720      8.92210         0.014287     -0.007781      0.011429
Au     16.54934     18.20794      9.15285         0.004348     -0.012296      0.006309
Au     15.37456     17.14763     11.42727        -0.030047      0.006754     -0.000871
Au     19.63504     17.83855     13.02965        -0.004613     -0.004954      0.004891
Au     11.77191     16.28578     15.20258        -0.010235      0.063546      0.000195
Au     13.44766     11.81778     17.98881         0.007787     -0.017247      0.010816
Au     10.79211     12.43558     13.75799         0.018537      0.006148      0.016791
Au     12.55465     10.36772     15.04273         0.022688      0.013886     -0.001065
Au     13.69953     12.88215     15.44267        -0.018216     -0.029316     -0.004107
Au     11.89129     14.69887     17.56835         0.025447      0.024647      0.004605
Au      9.85009     14.39924     15.51085        -0.021347     -0.011382      0.013771
Au     11.12608     12.21209     16.55731         0.020166     -0.008181      0.002222
Au     14.44879     15.31694     16.46881        -0.015064      0.053356     -0.014366
Au     19.92118     15.64949     14.91153        -0.021078      0.009945     -0.003554
Au     16.89812     15.06816     18.42912         0.014817     -0.003865     -0.006495
Au     16.18019     12.55730     17.47046        -0.005781     -0.000610      0.012079
Au     15.08603     10.35807     16.22362         0.013975     -0.008969     -0.000624
Au     14.32395     14.19070     19.03583        -0.006910     -0.011643     -0.011070
Au     16.04736     13.84390     14.38246         0.040431      0.000398     -0.008709
Au     17.34236     11.41929     14.98698        -0.012965      0.002217     -0.005814
Au     18.47150     13.64962     16.35551        -0.015401      0.007459     -0.030275
Au     11.93767     19.04202     15.23378        -0.005209      0.013933      0.007179
Au     12.53718     17.50106     17.60045         0.004242      0.001944     -0.010897
Au     19.03168     18.25687     15.80688        -0.012088     -0.015959      0.005631
Au     14.59199     18.01178     15.70296        -0.016315     -0.062109     -0.036215
Au     16.74855     20.02048     16.10397         0.013073     -0.006946     -0.037926
Au     19.30528     16.10426     17.56590        -0.014067     -0.006521     -0.023464
Au     14.85256     16.89710     19.04356        -0.013713     -0.019822      0.009593
Au     14.68922     19.48981     18.01756         0.011391     -0.000715      0.020849
Au     18.51175     20.25361     13.94735        -0.014854     -0.007543      0.006954
Au     17.18832     17.97389     17.99395        -0.013030      0.002578      0.000240
Au     14.05938     20.76795     15.55068        -0.003945      0.028503     -0.013076
Au     17.02830     16.15174     15.73205        -0.025338     -0.001519     -0.009450
