58
# total energy = -161.38873560 eVAu     10.10607     13.79082     12.74053         0.009439      0.009617     -0.008656
Au     11.69043     14.08360     10.40610        -0.008504     -0.009093      0.000944
Au     12.01658     11.75383     11.95755         0.003379      0.004370     -0.007590
Au     12.47904     15.72444     12.84845        -0.030974      0.013968      0.007777
Au     16.85468     12.63423     12.32860        -0.009665      0.029369     -0.001893
Au     14.17646     13.69532     11.88938        -0.012349     -0.015290     -0.022361
Au     16.68917     14.70287     10.32567        -0.005088      0.013427      0.021011
Au     15.41364     12.29199      9.81465        -0.002152      0.014127      0.023557
Au     18.21973     15.03079     12.72188        -0.000480      0.003300      0.001042
Au     14.08404     14.69361      9.16677         0.006533     -0.016486      0.008650
Au     14.69405     10.86028     12.08054        -0.002032      0.020422      0.006647
Au     10.03451     16.17540     11.28220         0.005538     -0.001744      0.024005
Au      9.77790     16.32209     14.03363         0.026586     -0.001522     -0.031292
Au     11.29580     18.31071     12.59563         0.015170     -0.004732     -0.001370
Au     12.96130     20.03755     14.02432        -0.011123     -0.010091      0.013434
Au     12.50054     16.85027     10.16626        -0.004368      0.014830     -0.001310
Au     13.56848     19.17199     11.25849         0.004943     -0.020272     -0.005534
Au     17.75254     17.15082     10.91329        -0.007449      0.000334      0.003208
Au     18.69837     19.62665     11.65257        -0.013673      0.006792      0.007579
Au     15.08012     21.10102     12.60797        -0.004113     -0.008051      0.002261
Au     19.27497     17.49721     13.41718         0.004522      0.009859      0.020111
Au     15.17322     17.22716      9.50161         0.000286     -0.004251      0.019068
Au     16.20689     19.57829     10.48369         0.002500     -0.013655      0.011598
Au     17.62613     21.22267     13.73404        -0.003749     -0.002655     -0.008534
Au     16.40319     18.65735     13.17986        -0.001867      0.005245      0.006318
Au     15.21674     16.34267     12.15369         0.028883     -0.003306     -0.029037
Au     20.21556     20.10611     13.90460        -0.016553      0.000185     -0.017775
Au     12.30855     15.68162     15.72271         0.023003     -0.004998      0.004281
Au     13.20423     12.58391     19.06274        -0.010730      0.000407      0.001144
Au      9.93873     13.92114     15.60201         0.017140     -0.019386     -0.001070
Au     13.14991     10.48487     14.34963         0.001858      0.016980      0.024589
Au     12.74215     13.28282     14.34263        -0.002464      0.014478      0.003263
Au     10.51776     11.50041     14.30898        -0.034433     -0.001693      0.006709
Au     11.26133     14.48136     18.18534         0.002730     -0.006702     -0.020136
Au     11.64659     12.02087     16.79583         0.011259      0.003865     -0.007799
Au     14.24240     13.71463     16.76050        -0.002162      0.004071     -0.037837
Au     19.37995     15.48958     15.30382        -0.000877     -0.003035     -0.007722
Au     15.82390     13.68278     19.15765         0.010286     -0.007631     -0.010638
Au     14.19433     10.88703     16.91487         0.005802     -0.006786      0.008000
Au     13.60929     15.38542     19.45479        -0.012652     -0.000697     -0.009000
Au     15.85036     11.24425     14.59657        -0.008575      0.012119      0.012104
Au     15.15651     14.72960     14.39435        -0.004383     -0.014163      0.025638
Au     17.94576     14.47569     17.49235        -0.029216     -0.015297     -0.012407
Au     16.69804     12.04907     17.10483         0.000730      0.001279      0.009070
Au     17.74745     13.28625     14.87568        -0.010322     -0.003593     -0.001796
Au     11.23719     18.34704     15.44104         0.023556      0.009167      0.007110
Au      9.68771     16.40605     16.79363        -0.001162     -0.006826      0.007178
Au     11.91964     17.28873     18.13884         0.012979      0.000101     -0.009118
Au     18.22336     19.29733     15.67840         0.026455      0.010409      0.011039
Au     14.76586     16.43128     16.95239         0.021773     -0.015211     -0.025534
Au     16.88769     16.74232     15.10557        -0.007247     -0.008048      0.003571
Au     15.49939     20.41969     15.36329        -0.016444      0.000947     -0.008399
Au     18.54179     17.17090     17.41101        -0.002279      0.008434      0.006848
Au     14.11092     17.52195     14.44195        -0.006504      0.026212      0.024082
Au     14.28566     18.09583     19.29296        -0.008885      0.002903     -0.019526
Au     13.48141     19.26461     16.82326         0.001013     -0.016936     -0.024283
Au     16.51346     16.36678     19.13540         0.027747     -0.005427      0.018909
Au     16.27823     18.89050     17.57978        -0.001637     -0.009637     -0.020130
