58
# total energy = -161.01543941 eVAu     10.38174     15.01625     13.96676         0.019323      0.000719      0.041517
Au     12.14905     14.72901     11.81127         0.032146     -0.018301     -0.014765
Au     12.55719     11.93323     11.30750         0.012571     -0.050383      0.109581
Au     13.53011     10.38338     13.39048         0.035456      0.079453     -0.104133
Au     14.40850     13.12519     13.95072         0.049620     -0.003101      0.101709
Au     11.48086     12.47202     13.78343         0.105195      0.036626     -0.067037
Au     13.10421     15.52395     14.46908        -0.061015     -0.022219      0.081206
Au     17.46584     12.88681     13.55321         0.030802      0.043556      0.013672
Au     18.69964     15.24343     12.46556         0.084806      0.036308      0.016191
Au     15.09871     15.33560     12.45899        -0.051034      0.018115     -0.112445
Au     17.01216     13.77171     10.85390        -0.042802      0.039956      0.088945
Au     14.89410     16.29241      9.79130        -0.053220     -0.098361      0.077695
Au     14.28444     13.68761     10.24301         0.104549      0.103110      0.012065
Au     15.53904     11.64489     11.88793        -0.010250      0.062371      0.032751
Au     11.35833     17.65845     13.81547        -0.072483      0.045732      0.039320
Au     13.16650     19.78793     13.62660         0.035459     -0.101390     -0.045074
Au     13.04481     17.38620     11.66261         0.046326     -0.020326     -0.010597
Au     14.47320     19.74808     11.19578        -0.005493      0.003878      0.008110
Au     17.76306     16.30007     10.02004        -0.030976      0.070023      0.104445
Au     17.31617     20.23655     11.11856         0.010857     -0.010841      0.022805
Au     14.92751     17.72153     14.41071         0.005443      0.023310      0.032003
Au     15.88343     20.66732     13.51052        -0.000027     -0.086382      0.090286
Au     19.17908     18.01977     11.82583        -0.039772     -0.147027      0.022998
Au     16.17449     18.60925      9.19973         0.053225      0.030020      0.016180
Au     18.74842     20.29281     13.41506        -0.010928     -0.079706      0.114014
Au     17.78411     17.62750     14.40444        -0.055631     -0.112111     -0.004481
Au     20.42010     16.79464     14.07860        -0.055329     -0.008833     -0.007007
Au     16.30856     17.75013     11.99025         0.041835      0.059025      0.006954
Au     11.17965     13.55761     16.30352         0.063516      0.078237     -0.049736
Au     13.06242     11.32931     15.88871        -0.027636      0.004907      0.037202
Au     12.08989     15.01543     18.53549         0.027466     -0.009925      0.064825
Au     12.58710     12.27070     18.38540         0.004549     -0.002854     -0.033715
Au     16.46789     15.41483     17.74542         0.015943     -0.037191     -0.008415
Au     14.43530     13.87136     19.61491        -0.011386      0.015221     -0.030326
Au     14.28181     13.97641     16.63185        -0.068699     -0.033865      0.020651
Au     16.42169     15.48709     20.63521         0.090785      0.004422     -0.087896
Au     17.06518     13.05612     19.18759        -0.036313      0.020905     -0.068512
Au     15.28788     11.52558     17.63945         0.029724      0.039645      0.007672
Au     15.85785     10.93187     14.89249         0.035674      0.041827     -0.000792
Au     16.27759     15.26868     14.96069        -0.016640     -0.004841      0.136060
Au     19.19485     14.19380     17.86262         0.026352      0.023789     -0.041201
Au     17.62275     12.45566     16.37984        -0.066647      0.098039     -0.059597
Au     19.13135     14.51313     15.12456        -0.018891      0.022947     -0.045607
Au     12.29470     18.93613     16.14561         0.009042      0.109562     -0.049493
Au     13.94150     16.72029     16.94577        -0.001858     -0.010357     -0.029837
Au     14.07846     19.15539     18.49636        -0.024235     -0.004424      0.022746
Au     13.98679     16.68935     19.93083         0.020488      0.005198     -0.017477
Au     10.95822     16.41526     16.31826        -0.059989     -0.065596     -0.021055
Au     11.69955     17.76786     18.62401         0.033580      0.004567      0.013663
Au     18.74807     18.98722     18.12635        -0.036225      0.012090     -0.035377
Au     16.43703     18.02855     16.83718        -0.039876      0.004287     -0.024393
Au     17.50252     20.59899     15.86032         0.041237     -0.040612     -0.097652
Au     18.62160     16.48851     19.30986        -0.032612      0.007506      0.031478
Au     16.40751     18.18128     19.84263        -0.016067     -0.036914     -0.054421
Au     19.89398     16.68304     16.83824        -0.048171     -0.081439     -0.082023
Au     16.41897     20.57677     18.38922        -0.015509     -0.046341     -0.009445
Au     14.70012     20.34656     16.01225         0.013967      0.018857     -0.064042
Au     19.94804     19.16887     15.62352        -0.070220     -0.030868     -0.090191
