58
# total energy = -161.20222535 eVAu     10.32651     15.04998     13.93472        -0.015011     -0.007334      0.014239
Au     12.15666     14.74047     11.77734        -0.008514     -0.024353      0.020272
Au     12.64663     11.92636     11.27192         0.006821      0.020462     -0.005776
Au     13.60067     10.43496     13.38110        -0.007512      0.012411      0.000292
Au     14.51189     13.16482     14.06175        -0.006750     -0.055735     -0.010391
Au     11.60957     12.58706     13.71753         0.000859     -0.011086      0.015633
Au     13.00469     15.48887     14.52337        -0.017322      0.019231     -0.017811
Au     17.58592     12.88248     13.51860        -0.009817     -0.022582     -0.002226
Au     18.96514     15.12929     12.36311        -0.012253     -0.007637      0.020823
Au     15.03093     15.41891     12.52762         0.028443      0.026185     -0.027628
Au     17.03369     13.83924     10.92353         0.024956     -0.023076      0.016244
Au     14.79409     16.40700      9.91985        -0.024335      0.038133     -0.038610
Au     14.35642     13.75480     10.28162        -0.003622      0.021809     -0.014163
Au     15.58487     11.71636     11.92107        -0.009609     -0.001500      0.011278
Au     11.22457     17.70509     13.87600        -0.042634      0.014950      0.045591
Au     13.14002     19.71601     13.59861         0.017195     -0.029833      0.003545
Au     12.91578     17.42803     11.72917        -0.023238     -0.018088      0.008004
Au     14.44979     19.69163     11.15711         0.015121     -0.033640      0.009948
Au     17.70228     16.34041     10.09059         0.006995      0.005192     -0.010182
Au     17.30488     20.28955     11.11090        -0.027200      0.005667     -0.016081
Au     14.89039     17.63596     14.43823         0.014687      0.023436      0.001943
Au     15.85743     20.55845     13.50295        -0.012339      0.009958      0.002825
Au     19.22739     17.90686     11.84129         0.007568     -0.012190     -0.016989
Au     16.23241     18.60742      9.22562         0.021112     -0.000299     -0.006427
Au     18.71443     20.13998     13.40047         0.009356      0.000569      0.000437
Au     17.83453     17.36817     14.44760         0.014175      0.019626      0.015511
Au     20.52621     16.76015     14.05004         0.006468      0.005984      0.016231
Au     16.35895     17.83217     12.10094         0.041852      0.008127     -0.011026
Au     11.22876     13.61264     16.26588         0.004053      0.030188     -0.006647
Au     13.04710     11.34535     15.88152         0.015843      0.001421     -0.042220
Au     12.06139     15.03828     18.58782         0.016265     -0.063138     -0.015961
Au     12.57517     12.28624     18.38149         0.003455      0.023952      0.039512
Au     16.45985     15.43309     17.77800        -0.042171      0.020552     -0.019160
Au     14.42956     13.87737     19.65552        -0.047559      0.012771     -0.033098
Au     14.21763     14.01106     16.72636        -0.010887     -0.009830      0.018675
Au     16.46958     15.47827     20.61340        -0.016547      0.007133      0.000104
Au     17.04852     13.05025     19.13639         0.013197     -0.014883      0.016016
Au     15.28095     11.52077     17.59728         0.020271      0.001958      0.009103
Au     15.93224     10.93023     14.86301        -0.014093     -0.005654     -0.006763
Au     16.24384     15.18116     15.04515         0.027371     -0.004520      0.016913
Au     19.22430     14.18541     17.84439        -0.007674     -0.009960      0.001148
Au     17.55408     12.58707     16.33619         0.014031     -0.017283     -0.004083
Au     19.20694     14.49935     15.07827         0.012536     -0.006635     -0.025578
Au     12.21942     19.00203     16.15038         0.007298      0.009787     -0.008185
Au     13.85480     16.75984     16.93700         0.027941      0.003168      0.003521
Au     14.04592     19.16978     18.49488        -0.029188      0.004703     -0.019950
Au     14.00386     16.69487     19.90881        -0.004832      0.003282      0.005993
Au     10.86646     16.42907     16.34751        -0.008201     -0.014364     -0.012839
Au     11.67005     17.78640     18.62379        -0.003376      0.025024      0.032215
Au     18.71158     18.98070     18.04639         0.006325      0.011447      0.008491
Au     16.39311     18.01156     16.78610        -0.021971     -0.023480      0.016074
Au     17.49556     20.55105     15.81354         0.005389      0.016186      0.001366
Au     18.65024     16.50247     19.27724         0.019147      0.005406      0.028399
Au     16.40880     18.16179     19.75635        -0.006689     -0.013061      0.011454
Au     19.86400     16.64385     16.78451         0.022912      0.031278     -0.014543
Au     16.38175     20.57537     18.32952         0.018027     -0.000981     -0.000943
Au     14.66912     20.31626     15.97896        -0.020176      0.005516      0.003518
Au     19.95229     19.11532     15.57724         0.003849     -0.014371     -0.028034
