58
# total energy = -159.88428829 eVAu     10.44887     15.00754     13.92491         0.020286     -0.029416      0.012645
Au     12.35237     14.65619     11.93647        -0.212628     -0.016756     -0.247993
Au     12.63513     11.84604     11.32297        -0.039568     -0.062035      0.116530
Au     13.60298     10.23845     13.40827         0.004624      0.192365     -0.096933
Au     14.11793     13.04692     13.85341        -0.057548     -0.379233     -0.153912
Au     11.33801     12.34161     13.73015         0.107159     -0.004918     -0.095771
Au     13.18582     15.53933     14.54312        -0.473309     -0.087341     -0.161062
Au     17.05794     13.12175     13.59994         0.350081     -0.283332     -0.137140
Au     18.13164     15.56494     12.70203         0.336292     -0.101164     -0.220519
Au     15.20143     15.23716     12.59089         0.041026     -0.120261     -0.275745
Au     17.01289     13.86227     10.80045        -0.097511     -0.166392     -0.054319
Au     14.99634     16.21353      9.86241         0.082296      0.134190     -0.140211
Au     14.28070     13.66185     10.18079         0.044679     -0.114833      0.042959
Au     15.53849     11.65930     11.82536        -0.132617     -0.032250     -0.003239
Au     11.39631     17.64187     13.78336        -0.157940      0.062075      0.049885
Au     13.17343     19.83338     13.51335        -0.016504     -0.028369      0.074649
Au     13.35123     17.31712     11.89120        -0.329566      0.119181     -0.309953
Au     14.53111     19.80623     11.10353         0.067636     -0.047226     -0.014171
Au     17.88160     16.37735     10.00713        -0.106425      0.025023     -0.075587
Au     17.43433     20.24800     11.09665        -0.118107     -0.138633      0.027696
Au     14.81475     17.77675     14.45551        -0.091866      0.346700     -0.177783
Au     16.00560     20.34746     13.50539        -0.009297      0.405901     -0.161692
Au     19.18563     18.07467     11.81759         0.075440      0.070439      0.010784
Au     16.24623     18.58582      9.19331         0.014392      0.030497      0.132563
Au     18.91680     20.39790     13.41099         0.021293     -0.073026      0.030021
Au     17.64859     17.96349     14.35551         0.404131      0.097967     -0.124313
Au     20.25076     16.75983     14.07268         0.154146      0.007066     -0.009992
Au     16.24660     17.72599     11.99851         0.092666      0.290665     -0.503534
Au     11.46778     13.61912     16.16617        -0.355744     -0.152403      0.150648
Au     13.01559     11.22795     15.89548        -0.023148     -0.088309      0.049898
Au     12.16887     14.95189     18.52809        -0.103451      0.029709      0.135631
Au     12.56052     12.23239     18.38120         0.049859     -0.036851      0.002518
Au     16.44822     15.47193     17.89919         0.248952     -0.194674      0.346696
Au     14.54812     13.80747     19.51605        -0.048910     -0.086862      0.158117
Au     14.38878     13.87324     16.53342         0.001070     -0.272775      0.183763
Au     16.56345     15.39742     20.73387         0.022940      0.067084     -0.153524
Au     17.18779     12.99630     19.26099        -0.048173      0.115930     -0.044245
Au     15.26179     11.46235     17.82277        -0.115607      0.055297     -0.081281
Au     15.75655     11.07732     15.01582        -0.064911     -0.270361     -0.097276
Au     16.31275     15.52988     15.13537         0.082818     -0.156492      0.006486
Au     19.22550     14.20814     17.80574         0.137600     -0.109271      0.100744
Au     17.15935     12.95894     16.40014         0.373426     -0.358193      0.156230
Au     19.09997     14.38238     15.01662         0.252603     -0.053238      0.061558
Au     12.45433     18.87052     16.07371        -0.216241      0.129611      0.080264
Au     13.99672     16.58246     16.95656        -0.283735      0.230896      0.270880
Au     14.12477     19.11533     18.46185        -0.029432      0.069957      0.104187
Au     14.14545     16.58412     19.84666        -0.143233      0.100209      0.210858
Au     11.01432     16.39807     16.30497        -0.142417      0.050334      0.015864
Au     11.80764     17.69689     18.60768        -0.034363      0.023416     -0.047419
Au     18.75392     19.01112     18.13330        -0.091200      0.063138      0.038411
Au     16.34726     18.05753     16.81698         0.181128      0.291102      0.285503
Au     17.59854     20.57101     15.85551         0.039672      0.126703      0.066840
Au     18.76375     16.48582     19.38736        -0.129624     -0.040650      0.046148
Au     16.48297     18.08996     19.72876         0.017574      0.155858      0.247407
Au     18.91106     16.67350     16.58271         0.496581     -0.012321      0.110949
Au     16.40645     20.59338     18.35250         0.064509     -0.028214      0.019097
Au     14.76860     20.37948     15.95622        -0.070490      0.157076      0.135223
Au     20.02931     19.09874     15.63394        -0.041315      0.097414     -0.094038
