58
# total energy = -160.61164659 eVAu     10.83240     15.08213     13.15636         0.033267      0.063302     -0.008825
Au     12.24038     13.76976     10.92710         0.024423      0.058416      0.046263
Au     13.23920     13.70396     13.81369         0.080773      0.215674     -0.084221
Au     13.38607     11.39575     12.03684         0.040938      0.121514      0.060843
Au     13.66138     15.27817      9.08832        -0.025895     -0.001733      0.038362
Au     10.80353     12.30108     12.75999         0.035649      0.046597      0.025781
Au     18.21928     12.70952     14.38844        -0.090212      0.109114      0.077484
Au     14.69520     10.79539     14.41116         0.047368     -0.117277     -0.073998
Au     17.48622     14.03143     10.89736        -0.017532     -0.000501      0.035768
Au     17.06056     15.38479     13.53692        -0.064524     -0.006760     -0.001254
Au     19.56471     14.56853     12.69982        -0.103133      0.021389      0.057347
Au     14.94226     12.95472     10.10478        -0.012168      0.033905      0.054464
Au     14.71801     15.10412     11.85744        -0.050508     -0.104726      0.137762
Au     16.00325     12.43706     12.64757         0.167131     -0.075829     -0.019793
Au     11.99312     17.52515     13.74522        -0.018357      0.009852      0.012714
Au     13.00998     19.21068     11.81887        -0.015595     -0.052999     -0.018839
Au     12.17246     16.59048     11.13404        -0.110598     -0.010260      0.023104
Au     14.16501     17.97963      9.65958         0.003390     -0.072833      0.012343
Au     18.36392     16.76471     11.25290         0.078260     -0.029273      0.001919
Au     16.26126     16.07713      9.53727         0.054545     -0.018116     -0.038847
Au     15.50474     20.47319     11.99885         0.017981     -0.112013      0.039081
Au     14.15487     19.34702     14.35837        -0.185420      0.134345     -0.011435
Au     16.59533     20.84592     14.57521        -0.043457     -0.133601      0.029832
Au     18.11268     19.38105     12.42454        -0.014757     -0.096945      0.033370
Au     16.81190     18.82224     10.01857         0.011412     -0.053330      0.046289
Au     15.53675     17.67556     12.27108        -0.033712     -0.000642      0.144462
Au     19.58796     17.21340     13.76829        -0.059395     -0.021926     -0.014107
Au     14.54553     16.21934     14.56318        -0.038067     -0.012386     -0.037811
Au     12.96024     11.85945     19.24483         0.006388      0.073251     -0.084542
Au     10.46959     13.26114     15.37653         0.044057      0.021135      0.027390
Au     11.98088     10.74425     14.69453         0.084168      0.016145      0.056482
Au     13.19090     12.84727     16.43504         0.044303      0.124026      0.000735
Au     11.31221     14.00211     18.16576         0.043608      0.034498     -0.034576
Au     13.99750     10.28390     17.08106         0.065427      0.053018     -0.016094
Au     13.80950     14.42408     19.84166         0.066953      0.007469     -0.118990
Au     11.83552     15.62729     15.83372        -0.153333      0.114673      0.020197
Au     11.06130     11.24655     17.29345         0.017723      0.001442     -0.043540
Au     14.40274     15.24060     17.25023        -0.024559      0.006416     -0.156839
Au     19.25551     15.41653     18.29404        -0.051887      0.024332     -0.024000
Au     15.52267     12.44821     18.36183         0.099169     -0.027422      0.104700
Au     19.64522     14.93373     15.49380        -0.059700      0.039217      0.056819
Au     16.64999     14.84938     19.26689        -0.039532     -0.002042     -0.026884
Au     15.66137     13.52260     15.33433         0.039310      0.009238     -0.142821
Au     17.05957     15.81559     16.47097         0.003440     -0.065556     -0.021214
Au     16.71950     11.01408     16.21965        -0.045112      0.076665     -0.033679
Au     18.05901     13.17963     17.23271        -0.045073      0.066214      0.026355
Au     12.40927     18.34342     16.32338         0.026053      0.030058     -0.031236
Au     13.23034     19.19241     18.78197        -0.002179     -0.086536     -0.038482
Au     12.22287     16.58351     18.57225         0.101995     -0.028872     -0.056270
Au     19.37326     17.62363     16.59189        -0.017758     -0.023223      0.015119
Au     15.20737     17.91309     16.96779        -0.053860     -0.066668     -0.083024
Au     16.94645     18.01495     14.73184        -0.047137     -0.042506     -0.025538
Au     17.54079     19.83501     17.08393         0.036726     -0.034330      0.047500
Au     14.86217     17.01989     19.74794         0.035711     -0.050186     -0.051286
Au     17.59894     17.55822     18.89368         0.048309     -0.014849      0.027166
Au     19.25587     19.82435     14.90150        -0.065556     -0.064511      0.017897
Au     15.88856     19.67580     19.30238         0.060273     -0.009349      0.011373
Au     14.72831     20.62766     16.76453         0.070266     -0.074706      0.009228
