58
# total energy = -161.17385802 eVAu     10.08841     13.75429     12.72297         0.052785      0.054465      0.006200
Au     11.73509     14.03498     10.40420        -0.043765      0.072560      0.000609
Au     11.96495     11.71447     11.95148         0.037558     -0.009284      0.075141
Au     12.49750     15.68111     12.85370        -0.002606     -0.115220     -0.039795
Au     16.87789     12.61744     12.27792         0.057479      0.031330      0.003792
Au     14.17833     13.61996     11.95749        -0.044920     -0.017902     -0.101205
Au     16.77402     14.67462     10.25970         0.087955     -0.008253      0.032981
Au     15.43547     12.28218      9.82905        -0.050055     -0.022720     -0.020147
Au     18.27224     15.02702     12.65753        -0.031963      0.000638      0.021065
Au     14.14918     14.71924      9.26346        -0.071108      0.008571     -0.077400
Au     14.64998     10.84389     12.07961         0.046845     -0.015982      0.026014
Au     10.09872     16.14791     11.29912        -0.079334     -0.005728     -0.017930
Au      9.81702     16.28203     14.03930         0.009103      0.037464      0.037496
Au     11.38204     18.26634     12.64229        -0.037276      0.081917     -0.064411
Au     12.98441     20.02888     14.08015        -0.087749      0.128305      0.018546
Au     12.52334     16.86443     10.18963        -0.047748      0.002154      0.008382
Au     13.52971     19.26950     11.19630         0.055352     -0.068863      0.053791
Au     17.72721     17.16184     10.85519         0.063095     -0.037023     -0.031476
Au     18.73810     19.59882     11.59137        -0.080268      0.105296      0.032668
Au     15.09333     21.05191     12.67650         0.018956      0.144326     -0.072232
Au     19.21564     17.53396     13.40164         0.040649     -0.030205      0.005035
Au     15.15096     17.30253      9.51044         0.051296      0.007510     -0.079124
Au     16.20737     19.65804     10.46087         0.015435     -0.014186      0.017705
Au     17.66071     21.08008     13.75828        -0.029472      0.068563     -0.089055
Au     16.34867     18.58191     13.06108         0.144278      0.084699      0.083349
Au     15.24651     16.22394     12.07484        -0.044229      0.100649     -0.008007
Au     20.27357     20.08971     13.85437        -0.103427     -0.021214      0.013894
Au     12.33359     15.68294     15.71653        -0.025214     -0.146669      0.045017
Au     13.17510     12.59021     19.04396         0.037812     -0.008991      0.011907
Au      9.96312     13.89655     15.60951        -0.057072      0.070165     -0.019704
Au     13.11130     10.47818     14.37402        -0.033732     -0.048276     -0.016797
Au     12.78676     13.24807     14.40677        -0.139038     -0.003017     -0.026916
Au     10.48042     11.49801     14.32138         0.055510     -0.051569     -0.042229
Au     11.26546     14.46222     18.19978        -0.025164      0.001425     -0.028774
Au     11.62178     11.99608     16.80626         0.038672     -0.030656     -0.002837
Au     14.36467     13.73332     16.75876        -0.099894     -0.053749      0.107054
Au     19.30062     15.55909     15.28659         0.143532     -0.049896      0.023810
Au     15.79038     13.62956     19.20525         0.042250     -0.071330      0.038600
Au     14.19837     10.93062     16.92883        -0.024038     -0.054202      0.012894
Au     13.59638     15.38105     19.49787         0.045815      0.043180     -0.049129
Au     15.74062     11.45319     14.59142         0.028591     -0.143562     -0.032322
Au     15.10816     14.83450     14.40110         0.133040     -0.090881      0.039089
Au     17.55223     14.61393     17.25239         0.226317     -0.015494      0.137272
Au     16.74996     12.00990     17.12030        -0.026747     -0.004534     -0.071696
Au     17.79081     13.28070     14.80361        -0.079397     -0.020801     -0.003991
Au     11.26663     18.32651     15.48957        -0.085292      0.026831     -0.065232
Au      9.73455     16.37583     16.80221        -0.140247      0.009911     -0.019779
Au     11.93028     17.25421     18.17567        -0.000254      0.088282     -0.013566
Au     18.33911     19.31964     15.77560        -0.058180     -0.038158     -0.047216
Au     14.74103     16.47598     16.92374         0.010963      0.035821      0.130406
Au     16.86513     16.84935     15.12376        -0.011430      0.025625      0.022852
Au     15.54786     20.41419     15.42094        -0.046124     -0.021471     -0.120736
Au     18.50306     17.19100     17.49284         0.067746     -0.063127     -0.026635
Au     14.10412     17.54002     14.37081        -0.002401     -0.053536      0.019803
Au     14.27980     18.11538     19.29037        -0.046773     -0.004761      0.074067
Au     13.48228     19.27171     16.84751         0.065828      0.042818     -0.002535
Au     16.42547     16.33892     19.16848         0.040707      0.066646      0.088699
Au     16.29026     18.92213     17.61766         0.037350      0.002109      0.002740
