58
# total energy = -161.39413143 eVAu     10.10582     13.78934     12.73702        -0.002338      0.009435     -0.004916
Au     11.68301     14.07973     10.40009        -0.009136      0.003877     -0.003613
Au     12.01401     11.75104     11.95602        -0.008130     -0.003023      0.003666
Au     12.47481     15.73877     12.84682         0.007213      0.014324      0.005040
Au     16.84596     12.65131     12.33807        -0.014061      0.000910      0.005406
Au     14.16216     13.70367     11.88124         0.003222     -0.002758     -0.002374
Au     16.67891     14.71229     10.33964         0.001742      0.001518     -0.017529
Au     15.41902     12.29425      9.82378         0.001915      0.002484      0.013390
Au     18.20654     15.04497     12.73771         0.018073     -0.004291     -0.003744
Au     14.07953     14.68230      9.15862        -0.003544      0.009407      0.006916
Au     14.69249     10.87169     12.09306        -0.007860      0.008428      0.005918
Au     10.03349     16.17465     11.28449        -0.001395      0.000729     -0.005522
Au      9.78557     16.32363     14.03118         0.002923     -0.011199     -0.005404
Au     11.29428     18.31662     12.59114        -0.008132      0.003578      0.006796
Au     12.94984     20.04601     14.02392        -0.003544     -0.009166     -0.004327
Au     12.49200     16.84733     10.15459         0.005139     -0.008543      0.001224
Au     13.57749     19.15179     11.26421        -0.003261     -0.002268     -0.013012
Au     17.75478     17.15449     10.92332         0.000004     -0.000940      0.000702
Au     18.69841     19.63073     11.65670        -0.014607      0.000686     -0.002554
Au     15.07526     21.09621     12.60552         0.005738      0.004730     -0.011234
Au     19.27902     17.50750     13.43707        -0.000267     -0.000702     -0.002076
Au     15.16941     17.21609      9.50801        -0.001026     -0.006059      0.008413
Au     16.21021     19.56652     10.48482        -0.000195      0.010193      0.002728
Au     17.62556     21.22664     13.73749        -0.024425      0.003349     -0.002160
Au     16.40481     18.66528     13.18770         0.008934      0.006313     -0.000531
Au     15.21821     16.34781     12.16585         0.009367      0.011539     -0.012986
Au     20.21776     20.11688     13.89791         0.009967      0.019285      0.002423
Au     12.31688     15.68810     15.72257         0.031791     -0.005355     -0.007344
Au     13.20315     12.58141     19.06379        -0.005068     -0.000823     -0.001312
Au      9.94685     13.91574     15.59996        -0.002127      0.010605     -0.001676
Au     13.14533     10.50116     14.36286        -0.007926      0.001707      0.010176
Au     12.72629     13.29478     14.32893        -0.003479      0.008721      0.010863
Au     10.50410     11.49817     14.30791        -0.009754     -0.014469     -0.012695
Au     11.26556     14.47589     18.17240         0.001403     -0.015960      0.006299
Au     11.65486     12.01311     16.78846         0.012907     -0.011260     -0.009842
Au     14.23176     13.69888     16.75021         0.006217      0.008962     -0.015565
Au     19.38858     15.47841     15.30326        -0.004563      0.004907      0.011761
Au     15.82071     13.68893     19.14908        -0.010211      0.000463     -0.001513
Au     14.20241     10.87667     16.92509        -0.005448     -0.016902      0.024721
Au     13.60275     15.38171     19.45724         0.001883      0.006981     -0.024325
Au     15.84745     11.25269     14.60673        -0.011583     -0.003159     -0.003670
Au     15.15161     14.72568     14.39514        -0.007855     -0.015672      0.017167
Au     17.94576     14.46881     17.49006        -0.001440      0.018740     -0.006159
Au     16.70294     12.04108     17.11534         0.004692     -0.004028      0.008114
Au     17.75172     13.27838     14.88343        -0.006344      0.011072     -0.002379
Au     11.23684     18.34882     15.44257         0.002557      0.006698     -0.010133
Au      9.69215     16.40054     16.79026        -0.017823     -0.004385     -0.000926
Au     11.92294     17.28453     18.13315         0.007706      0.003453      0.007604
Au     18.23627     19.30486     15.68198        -0.002038      0.012229     -0.005435
Au     14.78846     16.40891     16.94796         0.005818     -0.026710     -0.010731
Au     16.89331     16.73653     15.09382         0.014965     -0.005999      0.008227
Au     15.48935     20.43210     15.35941         0.026864     -0.006648     -0.006306
Au     18.54419     17.16824     17.39843         0.003878     -0.002826      0.011917
Au     14.11519     17.53857     14.45095        -0.007160     -0.012379      0.013062
Au     14.29257     18.08565     19.27636        -0.002844     -0.002494      0.000637
Au     13.48487     19.25538     16.81317        -0.009574      0.005602      0.009183
Au     16.53035     16.36931     19.13690         0.004947     -0.014644      0.013052
Au     16.27614     18.88343     17.55849         0.017291      0.001735     -0.003415
