58
# total energy = -160.44643779 eVAu     10.43496     14.98966     13.92572         0.060426      0.038177      0.014864
Au     12.28186     14.66076     11.84577        -0.069765      0.079243     -0.010716
Au     12.61152     11.83282     11.32849        -0.008409      0.060430     -0.060290
Au     13.59261     10.26018     13.38569        -0.025431      0.008661      0.044607
Au     14.12108     13.01212     13.83452         0.186822      0.056071      0.065066
Au     11.35533     12.34893     13.72382         0.033470      0.045150      0.079149
Au     13.12895     15.50553     14.51379         0.028256      0.124916     -0.011917
Au     17.18043     13.02945     13.57691         0.080118     -0.023935     -0.015108
Au     18.23982     15.51518     12.63682         0.107006     -0.170030      0.017894
Au     15.19974     15.22878     12.54771         0.035517      0.144157      0.079094
Au     17.00064     13.81601     10.78359         0.017346      0.017924      0.082328
Au     14.99428     16.22141      9.81590        -0.009833      0.032636      0.034542
Au     14.28695     13.64818     10.18751        -0.024684      0.007444      0.035562
Au     15.51983     11.63736     11.81537         0.028692      0.028905      0.060333
Au     11.34707     17.66990     13.79623         0.110529     -0.084882      0.060404
Au     13.15896     19.84388     13.53186         0.084701     -0.128326      0.081806
Au     13.24214     17.34305     11.78846        -0.073445     -0.031042     -0.031886
Au     14.51842     19.80734     11.10639        -0.001300     -0.052264      0.091695
Au     17.86070     16.36732      9.98369        -0.062029     -0.014358      0.013064
Au     17.42300     20.23525     11.10687        -0.017737      0.004417      0.038904
Au     14.84731     17.81299     14.42371        -0.053022     -0.037648     -0.071524
Au     15.98859     20.48702     13.49501        -0.072004      0.097613      0.042820
Au     19.22094     18.08379     11.81238         0.004755     -0.068151     -0.001138
Au     16.25007     18.60921      9.18640        -0.039314     -0.012043     -0.002513
Au     18.91808     20.39463     13.41227        -0.072609      0.002283      0.000354
Au     17.69761     17.95460     14.32479         0.027786     -0.151494      0.065185
Au     20.31080     16.75357     14.06750        -0.043528      0.032555      0.008664
Au     16.27135     17.76307     11.92684        -0.084935     -0.140024      0.103763
Au     11.34680     13.57172     16.21936        -0.084024      0.004369      0.065800
Au     12.99899     11.19866     15.90742         0.022280      0.078150     -0.042810
Au     12.13606     14.95023     18.56881         0.018389      0.084437     -0.042065
Au     12.56240     12.22879     18.38819         0.014537      0.026794     -0.032784
Au     16.48840     15.44782     17.91523        -0.014889     -0.029158     -0.115006
Au     14.51877     13.79529     19.57708        -0.010503      0.079986      0.022967
Au     14.39060     13.85948     16.55301         0.019199      0.064935     -0.023089
Au     16.55247     15.42217     20.71934        -0.100341      0.024067     -0.028485
Au     17.17330     13.01529     19.25539        -0.078372      0.085884     -0.084473
Au     15.24001     11.46524     17.79629         0.010023      0.088972     -0.073472
Au     15.76630     11.00658     14.99671        -0.027516      0.066007     -0.064035
Au     16.30761     15.51429     15.14341         0.019523     -0.117706     -0.152317
Au     19.28271     14.17623     17.83666        -0.060281      0.000468      0.004381
Au     17.28081     12.81971     16.40947         0.164699     -0.138572     -0.056003
Au     19.16578     14.36900     15.03345        -0.116746      0.081874      0.033169
Au     12.38558     18.92586     16.09690         0.039829      0.005528      0.022335
Au     13.96738     16.61382     16.98144        -0.010086      0.052871     -0.053146
Au     14.11558     19.14185     18.50273         0.020081     -0.052345     -0.030308
Au     14.10539     16.61394     19.92157        -0.048236      0.036007     -0.029332
Au     10.96183     16.40272     16.31162         0.057947     -0.055673     -0.027879
Au     11.78708     17.71207     18.60133         0.062218     -0.037231     -0.051059
Au     18.74494     19.02332     18.14636        -0.038977     -0.036046     -0.028531
Au     16.38452     18.07462     16.85449         0.036020     -0.062618     -0.022166
Au     17.59961     20.62097     15.86027        -0.066932     -0.026114     -0.012396
Au     18.73566     16.48272     19.39764        -0.077809      0.013937     -0.042684
Au     16.47341     18.14240     19.82281        -0.058492      0.037957      0.033068
Au     19.08579     16.67192     16.62345         0.280740      0.015108      0.008920
Au     16.41966     20.60079     18.37102        -0.012562     -0.050758     -0.013363
Au     14.74941     20.42569     15.98044        -0.019785     -0.107642      0.022817
Au     20.02375     19.13222     15.61955        -0.087317      0.000127     -0.003062
