58
# total energy = -161.13343362 eVAu     10.34990     15.03509     13.97423        -0.017508      0.017505     -0.014106
Au     12.15015     14.73081     11.81971         0.011982      0.001629     -0.053441
Au     12.57551     11.94165     11.29856         0.036156     -0.006024     -0.045679
Au     13.56586     10.44042     13.37799         0.002597     -0.043850     -0.021959
Au     14.50206     13.15164     14.03987        -0.044510      0.018982     -0.002731
Au     11.55505     12.54052     13.76159         0.042990      0.003242     -0.007519
Au     13.06041     15.51877     14.49710        -0.021810     -0.015063      0.005716
Au     17.53334     12.89946     13.54782         0.014090     -0.037956     -0.003618
Au     18.85359     15.18559     12.41750         0.039001     -0.018709     -0.009030
Au     15.03337     15.37612     12.45024         0.011449      0.012366      0.065620
Au     17.02214     13.80406     10.91834        -0.000625      0.019655     -0.034404
Au     14.85534     16.30681      9.79626        -0.007812      0.053800      0.033913
Au     14.32420     13.69723     10.24556        -0.016060     -0.001023      0.011090
Au     15.55533     11.69508     11.91761         0.027870     -0.013969     -0.008426
Au     11.29191     17.67872     13.82690        -0.014315     -0.007660      0.034338
Au     13.16386     19.72522     13.60338        -0.017021      0.026849     -0.003221
Au     13.02529     17.39702     11.68356        -0.050883      0.018830      0.014206
Au     14.46087     19.75273     11.17948         0.002373     -0.012435     -0.036881
Au     17.71896     16.31280     10.07347         0.005596      0.044904     -0.021072
Au     17.30747     20.26613     11.12479         0.001225     -0.013459     -0.009676
Au     14.92829     17.68978     14.42755        -0.068413     -0.004396      0.033172
Au     15.87259     20.60371     13.52606         0.004877     -0.013398      0.003927
Au     19.17219     17.94877     11.84931         0.022980     -0.007706     -0.034195
Au     16.18715     18.61025      9.21673         0.021187     -0.011325      0.030832
Au     18.71841     20.19568     13.42655         0.007458     -0.000600     -0.016443
Au     17.77590     17.46630     14.43396         0.042955     -0.017393     -0.008637
Au     20.45256     16.79871     14.08091         0.068330     -0.036091     -0.040192
Au     16.30792     17.79515     12.02926         0.003718      0.025722      0.000286
Au     11.22857     13.60245     16.28312        -0.016653      0.014569      0.023760
Au     13.07711     11.33128     15.88697        -0.034147     -0.013449      0.028214
Au     12.07185     15.03079     18.57032        -0.017987     -0.002145      0.003209
Au     12.57590     12.26377     18.38487        -0.002081      0.003212      0.019873
Au     16.46042     15.40695     17.72040         0.007833      0.000616      0.052078
Au     14.42660     13.88507     19.60771        -0.011889     -0.042153      0.031536
Au     14.19708     13.98177     16.69472         0.044291      0.052787      0.001814
Au     16.45053     15.47281     20.57728         0.044416      0.021001      0.015177
Au     17.05666     13.04695     19.15376         0.003629     -0.006807     -0.024393
Au     15.30752     11.52260     17.61154        -0.016895     -0.000242     -0.006868
Au     15.90918     10.91600     14.87204         0.021683      0.000439      0.012312
Au     16.21813     15.21795     14.98620         0.006258     -0.025030      0.025746
Au     19.18994     14.20945     17.84530         0.044838     -0.038447      0.014155
Au     17.61731     12.50020     16.34849        -0.041529      0.042000      0.002556
Au     19.14241     14.54946     15.11109         0.023169     -0.029772     -0.002870
Au     12.26418     18.97870     16.13660        -0.027752      0.003896     -0.006761
Au     13.90829     16.74326     16.93791        -0.035065      0.009109      0.014676
Au     14.04196     19.17807     18.49023         0.019037     -0.005428      0.005945
Au     13.98800     16.69739     19.91823        -0.000971      0.015673     -0.004548
Au     10.91938     16.43978     16.33354        -0.025543     -0.028285     -0.029623
Au     11.67915     17.78693     18.62401         0.010139      0.001963      0.011225
Au     18.74575     18.97895     18.08684        -0.021297      0.031402      0.000718
Au     16.41217     18.02848     16.83104        -0.011155     -0.013574     -0.035194
Au     17.50507     20.57454     15.85402        -0.014863      0.010678     -0.041522
Au     18.64521     16.50761     19.28310        -0.023335     -0.011707      0.030341
Au     16.39267     18.15666     19.78264         0.022136     -0.004970      0.035539
Au     19.99139     16.65524     16.84673        -0.085944     -0.004697     -0.033446
Au     16.40500     20.55813     18.36924        -0.019028      0.029404      0.002513
Au     14.68055     20.35541     16.00232         0.011767     -0.008691     -0.010866
Au     19.92605     19.11652     15.60093         0.039062      0.016222      0.002834
