58
# total energy = -160.12983663 eVAu     10.90017     15.09526     13.17535        -0.249143     -0.176304     -0.051845
Au     12.26256     13.78031     10.95829        -0.030196     -0.069534     -0.090025
Au     13.28913     13.69816     13.79643        -0.297203     -0.076649     -0.002058
Au     13.41189     11.38154     12.03145        -0.128879      0.090356      0.013073
Au     13.66955     15.27290      9.09993         0.018174      0.028430      0.025542
Au     10.79188     12.29865     12.73572         0.091124      0.040258      0.133330
Au     18.17070     12.73625     14.35426         0.192371     -0.061727      0.135142
Au     14.67853     10.91217     14.44344         0.012911     -0.407370     -0.032058
Au     17.43513     14.05548     10.97285         0.176855     -0.077041     -0.231722
Au     17.02527     15.37693     13.59242         0.371388     -0.073724     -0.315565
Au     19.56284     14.58134     12.68804        -0.083841     -0.022439      0.079597
Au     14.94286     12.94583     10.12080        -0.029690      0.109973      0.011328
Au     14.69968     15.09744     11.94599         0.024464     -0.056426     -0.524919
Au     15.93565     12.55980     12.71084         0.204765     -0.389659     -0.303303
Au     12.08543     17.47646     13.76395        -0.307747      0.202372     -0.082151
Au     13.04854     19.19187     11.87707        -0.083573      0.068165     -0.216668
Au     12.26387     16.57120     11.19896        -0.241771      0.074088     -0.304250
Au     14.16867     17.98709      9.66948         0.029191     -0.042372      0.018649
Au     18.29022     16.76906     11.33092         0.227450     -0.028201     -0.268571
Au     16.25800     16.08563      9.58319        -0.077267     -0.002530     -0.130647
Au     15.49890     20.47271     12.01534         0.031305     -0.074876     -0.063860
Au     14.25584     19.23423     14.38268        -0.283198      0.393230     -0.112497
Au     16.58671     20.85129     14.56008         0.065575     -0.061163      0.051508
Au     18.08035     19.35882     12.44294         0.065689      0.098714     -0.039512
Au     16.81732     18.84704     10.02051        -0.089987     -0.115804      0.053930
Au     15.54846     17.63805     12.30362        -0.021368      0.301141     -0.301101
Au     19.53251     17.20226     13.77488         0.195578      0.040448     -0.003632
Au     14.55017     16.21478     14.59407        -0.140171      0.075303     -0.074760
Au     12.97289     11.85695     19.24544        -0.071465      0.006148     -0.092602
Au     10.52408     13.27460     15.38051        -0.149106     -0.100502     -0.041346
Au     11.98382     10.77229     14.70691        -0.023729     -0.024309     -0.029898
Au     13.22110     12.88850     16.40820        -0.260556     -0.369227      0.195258
Au     11.36128     14.02441     18.15462        -0.133806     -0.177282      0.027005
Au     13.98137     10.27563     17.08065         0.006384      0.141642     -0.015662
Au     13.78704     14.41812     19.83898         0.057207      0.039847     -0.049847
Au     11.95816     15.56952     15.80805        -0.415092      0.171205      0.093915
Au     11.06150     11.23737     17.30017         0.126790      0.127069     -0.038807
Au     14.41539     15.24518     17.23791        -0.125256     -0.025109      0.268700
Au     19.24332     15.41124     18.26378         0.002629      0.026648      0.080744
Au     15.46803     12.53837     18.26722         0.133111     -0.355730      0.277198
Au     19.57745     14.94770     15.47348         0.206476     -0.067064      0.045140
Au     16.62230     14.85595     19.19710         0.132759      0.015175      0.233190
Au     15.67402     13.58173     15.34034         0.057048     -0.343244      0.033557
Au     17.02577     15.80896     16.43154         0.311008     -0.027717      0.266033
Au     16.70373     11.01884     16.22909         0.043283      0.024155     -0.022584
Au     18.02404     13.20637     17.19251         0.108157     -0.090763      0.094829
Au     12.48826     18.27648     16.29581        -0.266811      0.250052      0.214948
Au     13.19604     19.17978     18.75861         0.232614      0.033359      0.038214
Au     12.24743     16.57783     18.54389        -0.044637      0.043486      0.102643
Au     19.31711     17.61208     16.56574         0.181603      0.036707      0.078323
Au     15.21084     17.88074     16.95128        -0.061833      0.327614      0.194248
Au     16.92196     17.98234     14.72161         0.204456      0.308715      0.017668
Au     17.50612     19.79654     17.03401         0.077457      0.133261      0.135435
Au     14.85437     16.99338     19.71749        -0.001577      0.147895      0.062438
Au     17.55001     17.52982     18.82153         0.144403      0.085158      0.231548
Au     19.25065     19.81449     14.88348        -0.030611      0.019202      0.055531
Au     15.89624     19.68279     19.28197        -0.131859     -0.068065     -0.006373
Au     14.72024     20.61967     16.73046         0.048148     -0.074983      0.177600
