58
# total energy = -161.00324365 eVAu     10.39266     15.00850     13.96244        -0.005382      0.019209      0.031682
Au     12.15195     14.72516     11.80632         0.033450     -0.000916     -0.007989
Au     12.55651     11.92889     11.31676         0.034937     -0.024902      0.025180
Au     13.52905     10.37630     13.38791         0.035620      0.042593     -0.062586
Au     14.38603     13.11861     13.93606         0.072971      0.027054      0.115261
Au     11.48093     12.45987     13.78292         0.050612      0.052101     -0.036375
Au     13.10659     15.52076     14.46832        -0.019092      0.003829      0.068596
Au     17.45314     12.88735     13.55148         0.027805      0.052001      0.024390
Au     18.66695     15.25920     12.47653         0.090419      0.001819      0.021419
Au     15.11162     15.32462     12.45815        -0.048691      0.061646     -0.017616
Au     17.00362     13.77444     10.84874         0.012957      0.031522      0.081284
Au     14.90010     16.28725      9.79685        -0.029003     -0.055279      0.039489
Au     14.28667     13.69031     10.24729         0.030732      0.033029     -0.009550
Au     15.53444     11.64131     11.88603         0.007362      0.052193      0.014806
Au     11.36651     17.65913     13.81870        -0.062027      0.024846      0.022491
Au     13.16770     19.79504     13.62266         0.027502     -0.109269     -0.030106
Au     13.05178     17.38198     11.65722         0.024232     -0.022321      0.024641
Au     14.47509     19.74803     11.19860         0.019591      0.000937     -0.010485
Au     17.77257     16.30427     10.01741        -0.050422      0.055292      0.078357
Au     17.32414     20.22801     11.12424        -0.002868      0.009113      0.010306
Au     14.92528     17.72865     14.40943         0.006288     -0.002907      0.018044
Au     15.88575     20.67314     13.51338         0.014416     -0.090153      0.058909
Au     19.17754     18.02173     11.82274        -0.005740     -0.110020      0.020126
Au     16.17701     18.60813      9.19679         0.042585      0.029820      0.033016
Au     18.75999     20.30479     13.41790        -0.029368     -0.064306      0.050302
Au     17.78291     17.65319     14.39380        -0.084318     -0.116585      0.026784
Au     20.40779     16.79299     14.07695        -0.018799     -0.008244     -0.014343
Au     16.31192     17.74785     11.98739        -0.013275      0.032135      0.006405
Au     11.17370     13.55374     16.30083         0.078083      0.066363     -0.022515
Au     13.05305     11.32707     15.88937        -0.008285     -0.013668      0.019680
Au     12.09762     15.00623     18.53805        -0.001305      0.051399      0.033368
Au     12.58971     12.26995     18.38287        -0.015867     -0.011440     -0.024077
Au     16.47439     15.41565     17.75574        -0.015274     -0.029757     -0.040292
Au     14.43433     13.86988     19.61735         0.025692      0.017298     -0.020888
Au     14.29691     13.97031     16.61958        -0.064090      0.003942      0.022258
Au     16.42411     15.48641     20.64334         0.065508      0.002860     -0.081421
Au     17.06660     13.06047     19.18822        -0.022649      0.017735     -0.063323
Au     15.28181     11.53080     17.64559         0.037717      0.015287      0.010296
Au     15.84483     10.93942     14.89720         0.049323      0.031267     -0.000323
Au     16.29197     15.28430     14.96852        -0.068228     -0.008438      0.096396
Au     19.20608     14.19159     17.86233        -0.009774      0.003310     -0.016381
Au     17.61332     12.45998     16.38023        -0.053965      0.104629     -0.045398
Au     19.12764     14.50475     15.12432        -0.017064      0.010620     -0.068267
Au     12.30227     18.93994     16.14304        -0.008822      0.055763     -0.017256
Au     13.94768     16.71491     16.94442        -0.013310     -0.011870     -0.021290
Au     14.08602     19.14975     18.50066        -0.025223      0.007526     -0.000949
Au     13.99139     16.68709     19.93461         0.016040      0.002327     -0.027374
Au     10.95854     16.40363     16.31724        -0.024549     -0.011184      0.010817
Au     11.70667     17.76591     18.62276         0.041632     -0.032527     -0.029512
Au     18.74080     18.98953     18.12791         0.000641     -0.004402     -0.030822
Au     16.44202     18.02682     16.83569        -0.061259     -0.003520     -0.023526
Au     17.50747     20.60144     15.85678        -0.001354     -0.026901     -0.052621
Au     18.61696     16.48712     19.31737         0.000171      0.016303      0.010327
Au     16.40982     18.18827     19.85475        -0.016734     -0.059824     -0.060380
Au     19.85110     16.68228     16.82259        -0.020012     -0.040899     -0.041139
Au     16.42235     20.57846     18.39150        -0.031634     -0.040256     -0.033110
Au     14.70352     20.34671     16.01015         0.029390      0.020256     -0.027625
Au     19.94469     19.17548     15.61947        -0.027291     -0.056436     -0.037089
