58
# total energy = -161.39403358 eVAu     10.10579     13.78955     12.73706        -0.001541      0.007234     -0.002995
Au     11.68342     14.07986     10.40055        -0.007925      0.003956     -0.004126
Au     12.01420     11.75122     11.95592        -0.007664     -0.002854      0.004702
Au     12.47471     15.73796     12.84686         0.008975      0.012574      0.004837
Au     16.84657     12.65034     12.33744        -0.013342      0.000629      0.005263
Au     14.16316     13.70284     11.88133         0.000804      0.000497      0.000772
Au     16.67940     14.71175     10.33908         0.002086      0.001475     -0.017237
Au     15.41863     12.29419      9.82332         0.002274      0.001637      0.011277
Au     18.20695     15.04417     12.73682         0.018672     -0.003385     -0.003245
Au     14.07987     14.68287      9.15895        -0.003835      0.008894      0.007279
Au     14.69268     10.87103     12.09224        -0.007951      0.007664      0.006349
Au     10.03354     16.17459     11.28455        -0.001029      0.001251     -0.006361
Au      9.78499     16.32365     14.03118         0.003865     -0.010783     -0.003556
Au     11.29426     18.31618     12.59143        -0.006304      0.003753      0.005988
Au     12.95019     20.04557     14.02416        -0.000667     -0.008381     -0.005647
Au     12.49252     16.84753     10.15511         0.004446     -0.007888      0.002389
Au     13.57699     19.15292     11.26395        -0.003100     -0.001433     -0.012038
Au     17.75460     17.15428     10.92280         0.000528     -0.000757      0.000244
Au     18.69851     19.63043     11.65634        -0.013748      0.001176     -0.001177
Au     15.07587     21.09649     12.60578         0.002409      0.004147     -0.010838
Au     19.27882     17.50686     13.43603        -0.000364      0.000003     -0.002927
Au     15.16959     17.21661      9.50768        -0.000577     -0.004580      0.007130
Au     16.21012     19.56712     10.48474        -0.000959      0.009499      0.002312
Au     17.62555     21.22624     13.73752        -0.021170      0.004419     -0.003842
Au     16.40474     18.66510     13.18711         0.007572      0.003514      0.000670
Au     15.21827     16.34777     12.16477         0.006967      0.008009     -0.008413
Au     20.21769     20.11619     13.89844         0.008268      0.017522      0.001094
Au     12.31655     15.68769     15.72255         0.026758     -0.004479     -0.006152
Au     13.20316     12.58157     19.06367        -0.004001     -0.000945     -0.000669
Au      9.94621     13.91600     15.60009        -0.000127      0.009742     -0.001572
Au     13.14567     10.50006     14.36207        -0.007559      0.003155      0.008971
Au     12.72724     13.29428     14.32974        -0.003324      0.005843      0.009246
Au     10.50501     11.49828     14.30805        -0.009464     -0.012471     -0.011865
Au     11.26546     14.47617     18.17328         0.000297     -0.014061      0.004598
Au     11.65442     12.01353     16.78915         0.011168     -0.009673     -0.010659
Au     14.23223     13.69997     16.75074         0.006435      0.006278     -0.013489
Au     19.38827     15.47909     15.30316        -0.005573      0.004109      0.011535
Au     15.82099     13.68857     19.14960        -0.009833      0.000287     -0.001680
Au     14.20183     10.87729     16.92426        -0.003984     -0.015231      0.023893
Au     13.60301     15.38176     19.45741         0.002582      0.007384     -0.024022
Au     15.84763     11.25209     14.60606        -0.010323     -0.001553     -0.002016
Au     15.15180     14.72580     14.39548        -0.006130     -0.012656      0.011967
Au     17.94590     14.46914     17.49046        -0.002194      0.016961     -0.007518
Au     16.70278     12.04154     17.11488         0.003374     -0.003715      0.005861
Au     17.75172     13.27877     14.88297        -0.007737      0.010201     -0.001586
Au     11.23698     18.34905     15.44228         0.001432      0.003112     -0.007297
Au      9.69166     16.40085     16.79050        -0.013461     -0.003763     -0.001257
Au     11.92291     17.28489     18.13370         0.005510      0.002017      0.004539
Au     18.23540     19.30449     15.68157        -0.000914      0.010532     -0.002979
Au     14.78673     16.41008     16.94789         0.008407     -0.022572     -0.007182
Au     16.89305     16.73694     15.09442         0.012874     -0.005849      0.007799
Au     15.48992     20.43156     15.35956         0.023813     -0.007188     -0.004900
Au     18.54405     17.16820     17.39896         0.003434     -0.000978      0.011935
Au     14.11497     17.53759     14.45070        -0.006741     -0.010644      0.009592
Au     14.29204     18.08618     19.27752        -0.001536     -0.001866     -0.001246
Au     13.48462     19.25593     16.81363        -0.008041      0.004597      0.008752
Au     16.52950     16.36935     19.13674         0.003282     -0.014313      0.012159
Au     16.27634     18.88401     17.55964         0.014882     -0.000054     -0.002666
