58
# total energy = -161.10894620 eVAu     10.35512     15.03312     13.98389        -0.009849      0.011024     -0.068092
Au     12.15051     14.73006     11.82193        -0.005156      0.015565     -0.027426
Au     12.57302     11.94183     11.30650        -0.021686     -0.034882     -0.041063
Au     13.55438     10.43587     13.37435         0.032692     -0.039410      0.026080
Au     14.49417     13.15182     14.02819        -0.042852     -0.047739     -0.005921
Au     11.53065     12.52864     13.76488         0.079498      0.004141     -0.003593
Au     13.07470     15.51982     14.49403        -0.060804      0.012442     -0.000433
Au     17.51887     12.90035     13.55359         0.034092     -0.025233     -0.021158
Au     18.82832     15.20062     12.42569         0.031652     -0.047241      0.010769
Au     15.03960     15.36614     12.44776         0.030099      0.055468     -0.015269
Au     17.02611     13.78865     10.90912        -0.045702      0.062159     -0.021765
Au     14.86504     16.30600      9.78904        -0.049239     -0.070464      0.073554
Au     14.30666     13.68683     10.24376         0.107140      0.127365     -0.010100
Au     15.54916     11.68477     11.90989         0.034186      0.007873      0.017485
Au     11.30432     17.67667     13.81945        -0.014221     -0.019009      0.044284
Au     13.17130     19.73089     13.61162        -0.052885      0.031526     -0.013212
Au     13.03450     17.39600     11.67837        -0.047084     -0.010437      0.013749
Au     14.46147     19.75107     11.19017         0.017924      0.004987     -0.070893
Au     17.72351     16.31117     10.06845         0.013526     -0.006170     -0.035657
Au     17.30654     20.26135     11.12681        -0.007972      0.002349     -0.064730
Au     14.93446     17.70062     14.42420        -0.048104     -0.039936      0.009434
Au     15.87550     20.61527     13.52521        -0.010394     -0.007992     -0.000634
Au     19.16781     17.96074     11.84645         0.051694     -0.002913     -0.011299
Au     16.18110     18.60837      9.21238         0.040218      0.044321      0.019489
Au     18.71211     20.21738     13.42494         0.079541     -0.039836      0.037122
Au     17.77211     17.49840     14.43154         0.036780     -0.049776     -0.003879
Au     20.44146     16.79989     14.08339         0.053801     -0.021135     -0.027030
Au     16.31508     17.78721     12.01160        -0.066927     -0.010725      0.078730
Au     11.22151     13.59653     16.28729        -0.004731     -0.007418      0.008424
Au     13.07985     11.33301     15.88583        -0.032331     -0.005793      0.038266
Au     12.07789     15.02918     18.55906        -0.036736      0.021244      0.028560
Au     12.58014     12.27289     18.38638        -0.021678     -0.068651     -0.019370
Au     16.45954     15.40260     17.71968         0.001211      0.040796      0.014957
Au     14.42810     13.88345     19.59973         0.012119     -0.008036      0.069745
Au     14.20642     13.97780     16.68244         0.035078      0.041632      0.015943
Au     16.44426     15.48115     20.58144         0.014798     -0.032050      0.033456
Au     17.05152     13.04903     19.16036         0.047543     -0.006242     -0.007554
Au     15.31231     11.52415     17.62052        -0.053671     -0.014252     -0.037608
Au     15.90445     10.91917     14.87511        -0.008645     -0.003002      0.003401
Au     16.22413     15.22134     14.97727         0.026488      0.024042      0.048378
Au     19.17977     14.21206     17.84417         0.064053     -0.047775      0.042940
Au     17.62553     12.48535     16.35609        -0.049527      0.044819     -0.018509
Au     19.13889     14.54660     15.11733         0.012393     -0.018446     -0.049816
Au     12.27244     18.96896     16.13813        -0.030230      0.009771     -0.002120
Au     13.91790     16.73800     16.93930        -0.032719      0.007867      0.000338
Au     14.04695     19.17341     18.49064         0.001437      0.008971      0.002279
Au     13.98476     16.69594     19.91719         0.012491      0.007171      0.015118
Au     10.92942     16.43266     16.32468        -0.019133      0.027218      0.034722
Au     11.68454     17.78249     18.62846        -0.014098     -0.000312     -0.028453
Au     18.75007     18.98130     18.10010        -0.013169     -0.004592     -0.041793
Au     16.41328     18.03561     16.83533         0.009919     -0.059626     -0.030805
Au     17.50083     20.57717     15.85325         0.030195      0.009342     -0.013335
Au     18.63474     16.50044     19.28980         0.039891      0.025921     -0.010674
Au     16.39373     18.15600     19.78551         0.011587      0.015839      0.049558
Au     19.99559     16.65534     16.85262        -0.108838      0.040780     -0.039833
Au     16.40678     20.55454     18.37325        -0.005743      0.056208      0.002519
Au     14.68882     20.35343     16.00173        -0.034736      0.003193      0.010099
Au     19.93189     19.12825     15.60557        -0.013188     -0.014941     -0.007377
