58
# total energy = -161.59733921 eVAu     10.60322     15.05130     12.86529         0.024169      0.026046     -0.000220
Au     11.59178     13.06352     10.89934         0.004016      0.014587      0.021296
Au     13.24284     13.83345     12.92547         0.014359     -0.035550     -0.044098
Au     12.39055     10.76004     12.31949        -0.016807      0.027347      0.014766
Au     13.81040     13.98146      9.39480         0.008740     -0.026566      0.023692
Au     12.01410     15.84279     10.59123         0.053336     -0.016343      0.073372
Au     18.98721     13.23970     13.63055         0.000022     -0.016359     -0.026561
Au     18.46640     13.93440     10.81059         0.001739     -0.010947     -0.006234
Au     16.66154     15.42418      9.07893         0.014185      0.009872     -0.005780
Au     14.44893     11.69202     10.90264         0.036727      0.003275      0.001564
Au     14.98827     10.61111     13.46899        -0.000645     -0.009519     -0.001916
Au     16.46922     12.69446      9.38324        -0.033983     -0.010191      0.019601
Au     17.63600     15.69905     12.97425        -0.009012      0.031158      0.002964
Au     20.41069     15.28135     12.22441         0.023208      0.000125     -0.020787
Au     15.60983     14.35350     11.58747        -0.003296     -0.010264     -0.005044
Au     17.07680     11.83118     12.13053         0.004327     -0.001030      0.013163
Au     11.63818     17.61701     12.80999        -0.022362      0.010227      0.021140
Au     13.17640     19.99021     12.92000         0.065798     -0.043942      0.028491
Au     12.86242     18.49570     10.56399         0.013183      0.029667     -0.043957
Au     15.15461     19.96190     10.89286        -0.014004      0.004039     -0.023145
Au     16.55375     18.16219     13.75992         0.000345     -0.005963     -0.000511
Au     17.82015     19.31300     11.42117        -0.009137      0.009378     -0.006384
Au     14.41642     16.14731     13.72937        -0.006719     -0.024262      0.030455
Au     15.82689     20.87985     13.40891         0.010486      0.019827     -0.013777
Au     18.70046     16.79395     10.48270        -0.000237     -0.003090      0.005833
Au     14.14498     16.68813      8.91865        -0.004271      0.003461     -0.005467
Au     16.57630     18.21827      9.13738        -0.016168     -0.030589      0.020452
Au     15.40569     17.14631     11.41049        -0.005498      0.023815      0.002827
Au     19.63363     17.83492     13.04219        -0.010255      0.010054     -0.012738
Au     11.82844     16.24022     15.19159        -0.051626      0.021384     -0.023514
Au     13.45672     11.83557     18.00404        -0.016628      0.000580     -0.023173
Au     10.80767     12.43474     13.77802         0.000227     -0.013880     -0.017088
Au     12.56154     10.37784     15.03737        -0.002873     -0.013507      0.011763
Au     13.66563     12.90131     15.44177         0.018192     -0.036825      0.047471
Au     11.91350     14.68082     17.57995        -0.027260     -0.005937     -0.004321
Au      9.85764     14.39946     15.51254         0.018970     -0.001647      0.023168
Au     11.11690     12.19554     16.58227         0.025983      0.022259     -0.011627
Au     14.45832     15.31917     16.47604         0.023091      0.007768     -0.018314
Au     19.90777     15.64882     14.91990         0.002627      0.001310     -0.003356
Au     16.90918     15.07642     18.44363        -0.007789     -0.004766     -0.015978
Au     16.18418     12.56026     17.50173        -0.013199     -0.013114     -0.016414
Au     15.07752     10.37261     16.23539         0.001623      0.011924     -0.023028
Au     14.33526     14.20429     19.05788         0.006286     -0.012153     -0.014673
Au     16.03009     13.84302     14.37918        -0.016985      0.010832      0.005270
Au     17.32008     11.42712     14.99449         0.027763     -0.007441     -0.013255
Au     18.46161     13.64874     16.36330        -0.013578      0.002208      0.000186
Au     11.93933     19.00916     15.23220        -0.013195     -0.005958     -0.003835
Au     12.55816     17.47373     17.59606        -0.012188      0.037534      0.032248
Au     19.03950     18.25473     15.81345        -0.026106      0.012934     -0.002222
Au     14.60074     18.00449     15.70604         0.002800      0.012740     -0.013553
Au     16.75462     20.03004     16.09265        -0.033130     -0.020521      0.002933
Au     19.31339     16.09988     17.57106        -0.028046      0.010768     -0.001502
Au     14.86404     16.90554     19.07466         0.001936      0.004956     -0.022935
Au     14.71334     19.48908     18.01232        -0.021582      0.000774      0.022058
Au     18.51157     20.25571     13.95114         0.022328     -0.008297     -0.005491
Au     17.19255     17.97544     17.98680        -0.009741     -0.011047      0.009688
Au     14.04610     20.75605     15.53902         0.026270      0.013376      0.017851
Au     17.02823     16.14791     15.73030        -0.006414      0.005481     -0.001357
