58
# total energy = -161.10887980 eVAu     10.35551     15.03304     13.98386        -0.008814      0.008288     -0.067851
Au     12.15048     14.73018     11.82176        -0.004787      0.013138     -0.026474
Au     12.57251     11.94141     11.30669        -0.017717     -0.029815     -0.041420
Au     13.55373     10.43488     13.37439         0.034059     -0.036175      0.027336
Au     14.49279     13.15120     14.02695        -0.040144     -0.042824     -0.005060
Au     11.52940     12.52754     13.76516         0.081189      0.006055     -0.003611
Au     13.07525     15.52007     14.49371        -0.059574      0.009999     -0.001383
Au     17.51792     12.90009     13.55383         0.033635     -0.023615     -0.023104
Au     18.82624     15.20144     12.42661         0.030727     -0.046433      0.006916
Au     15.04062     15.36589     12.44738         0.027310      0.050996     -0.008713
Au     17.02586     13.78804     10.90794        -0.043434      0.063234     -0.017692
Au     14.86534     16.30504      9.78932        -0.045339     -0.059387      0.067960
Au     14.30639     13.68748     10.24348         0.101296      0.115126     -0.006883
Au     15.54903     11.68389     11.90939         0.032618      0.010197      0.018201
Au     11.30534     17.67622     13.81934        -0.015131     -0.016685      0.043120
Au     13.17129     19.73189     13.61221        -0.051214      0.029279     -0.016381
Au     13.03475     17.39576     11.67805        -0.045899     -0.009045      0.014071
Au     14.46177     19.75097     11.19024         0.015978      0.005168     -0.067620
Au     17.72416     16.31093     10.06747         0.012614     -0.005136     -0.031954
Au     17.30639     20.26091     11.12619        -0.004101      0.002629     -0.056011
Au     14.93439     17.70111     14.42399        -0.046473     -0.040122      0.008998
Au     15.87564     20.61628     13.52510        -0.009941     -0.009555     -0.002053
Au     19.16809     17.96187     11.84602         0.048437     -0.004698     -0.009877
Au     16.18105     18.60874      9.21222         0.037763      0.038147      0.018501
Au     18.71261     20.21893     13.42523         0.076878     -0.041778      0.030107
Au     17.77226     17.50084     14.43123         0.035817     -0.052490     -0.004860
Au     20.44111     16.79973     14.08327         0.051549     -0.018895     -0.025425
Au     16.31488     17.78631     12.01099        -0.062771     -0.006840      0.078512
Au     11.22075     13.59584     16.28778        -0.003795     -0.006437      0.005409
Au     13.07965     11.33307     15.88620        -0.032128     -0.007240      0.033009
Au     12.07799     15.02927     18.55838        -0.034075      0.016856      0.030902
Au     12.58026     12.27283     18.38627        -0.020747     -0.065626     -0.017765
Au     16.45949     15.40274     17.71986         0.002892      0.039481      0.016946
Au     14.42839     13.88319     19.59992         0.009466     -0.007030      0.067417
Au     14.20781     13.97796     16.68147         0.030892      0.037782      0.017769
Au     16.44386     15.48150     20.58233         0.015004     -0.033444      0.031981
Au     17.05169     13.04914     19.16090         0.046039     -0.006228     -0.008379
Au     15.31201     11.52411     17.62088        -0.052412     -0.013205     -0.036482
Au     15.90384     10.91943     14.87545        -0.009645     -0.003644      0.002411
Au     16.22508     15.22203     14.97705         0.023649      0.023541      0.045408
Au     19.17971     14.21167     17.84464         0.064844     -0.044622      0.039237
Au     17.62563     12.48455     16.35657        -0.048623      0.046393     -0.018914
Au     19.13872     14.54606     15.11728         0.012285     -0.017372     -0.045654
Au     12.27284     18.96816     16.13825        -0.029212      0.011905     -0.002283
Au     13.91838     16.73761     16.93944        -0.032838      0.009006     -0.000037
Au     14.04747     19.17307     18.49072         0.001158      0.008823      0.002481
Au     13.98464     16.69589     19.91731         0.013805      0.006334      0.015577
Au     10.93012     16.43233     16.32432        -0.020795      0.026394      0.035878
Au     11.68487     17.78207     18.62849        -0.014357      0.001546     -0.028479
Au     18.75028     18.98146     18.10080        -0.015003     -0.005000     -0.043152
Au     16.41355     18.03549     16.83533         0.010742     -0.056724     -0.029103
Au     17.50083     20.57756     15.85304         0.029172      0.008591     -0.009179
Au     18.63430     16.50011     19.29030         0.041051      0.026493     -0.012114
Au     16.39399     18.15619     19.78649         0.010608      0.017812      0.046917
Au     19.99440     16.65591     16.85262        -0.109446      0.037596     -0.040349
Au     16.40689     20.55497     18.37366        -0.004423      0.052928      0.000671
Au     14.68913     20.35329     16.00182        -0.034726      0.003386      0.010280
Au     19.93227     19.12918     15.60592        -0.013912     -0.017053     -0.007753
