58
# total energy = -160.93508729 eVAu     10.42109     14.98995     13.95077        -0.037467      0.082587      0.022008
Au     12.16462     14.71628     11.79130         0.011176      0.032069      0.038894
Au     12.56184     11.91718     11.33256         0.026358     -0.011668     -0.089268
Au     13.52999     10.35185     13.38062         0.032489     -0.000864      0.035749
Au     14.32804     13.10560     13.90519         0.120995      0.016169      0.076472
Au     11.47575     12.43056     13.78342        -0.052577      0.058343     -0.008637
Au     13.11945     15.51589     14.47149        -0.013261      0.068628      0.015222
Au     17.41637     12.89619     13.55053        -0.008996      0.025478      0.007342
Au     18.57615     15.30213     12.51400         0.095942     -0.053203     -0.036642
Au     15.14613     15.30487     12.47106        -0.061895      0.080289      0.106148
Au     16.99011     13.78470     10.84001         0.072469     -0.002397      0.042919
Au     14.91980     16.27338      9.81104         0.002789     -0.008087     -0.034712
Au     14.28334     13.68940     10.25539        -0.009416     -0.022721     -0.059927
Au     15.52424     11.63392     11.87856         0.042818      0.048845      0.001259
Au     11.38680     17.66016     13.82811        -0.049899     -0.044287     -0.006031
Au     13.17293     19.80391     13.61021         0.016938     -0.094999      0.019070
Au     13.07225     17.36623     11.64916        -0.017458      0.001641      0.090207
Au     14.48739     19.74754     11.20275         0.033841      0.005704     -0.045128
Au     17.79315     16.32046     10.01291        -0.075341     -0.003024      0.012456
Au     17.34582     20.20700     11.14046        -0.034319      0.061257     -0.036488
Au     14.91956     17.74586     14.40525        -0.035977     -0.022779     -0.009129
Au     15.89695     20.68097     13.52306         0.021377     -0.088090     -0.039587
Au     19.17904     18.02194     11.81473         0.051355     -0.004809      0.028782
Au     16.18758     18.60792      9.19441         0.019623      0.027388      0.042572
Au     18.78960     20.33808     13.42020        -0.039577     -0.058501     -0.031406
Au     17.76513     17.71924     14.36952        -0.023446     -0.101837      0.062946
Au     20.37409     16.78684     14.06875         0.048143      0.008553     -0.003923
Au     16.31088     17.73945     11.97900        -0.079152      0.005562     -0.010509
Au     11.16609     13.54647     16.29477         0.099692      0.035603      0.041628
Au     13.02663     11.31533     15.89079         0.057978     -0.049671     -0.027409
Au     12.11573     14.99468     18.54394        -0.026718      0.031709     -0.009039
Au     12.59223     12.26447     18.37429        -0.023249      0.046700      0.028257
Au     16.48689     15.41633     17.77713        -0.049147      0.007576     -0.062299
Au     14.44105     13.86735     19.62473         0.007258     -0.014314     -0.043583
Au     14.33797     13.95841     16.58326        -0.071167      0.009416      0.076901
Au     16.43405     15.48409     20.66099         0.017055     -0.004332     -0.040719
Au     17.07091     13.07489     19.18441         0.026231     -0.022847     -0.015564
Au     15.26913     11.54393     17.66639         0.022187     -0.038785     -0.001426
Au     15.81211     10.96465     14.91182         0.060924     -0.005830     -0.009537
Au     16.32095     15.33234     14.99690        -0.134739     -0.029389     -0.001004
Au     19.23362     14.18190     17.86379        -0.065677      0.013842     -0.012652
Au     17.58047     12.48577     16.37888        -0.020066      0.093247     -0.000758
Au     19.11482     14.47748     15.11202         0.040175      0.015102     -0.000490
Au     12.32180     18.94903     16.13893        -0.016895     -0.026891      0.021979
Au     13.96344     16.69640     16.93955        -0.039011      0.021997      0.015935
Au     14.10646     19.13516     18.50966        -0.037142      0.031359     -0.050042
Au     14.00673     16.67989     19.94178         0.008648     -0.000873     -0.030577
Au     10.96290     16.37559     16.32079         0.010284      0.086431     -0.017607
Au     11.73421     17.75004     18.60837         0.020234     -0.018632     -0.043179
Au     18.72539     18.99311     18.13025         0.046222     -0.020043     -0.012511
Au     16.44713     18.01936     16.82815        -0.072003      0.003492      0.026934
Au     17.51480     20.60885     15.84825        -0.012375     -0.007571      0.030866
Au     18.60872     16.48642     19.33775         0.077434      0.015975     -0.054168
Au     16.41524     18.19976     19.88503        -0.010169     -0.067635     -0.085421
Au     19.72026     16.68333     16.77794         0.052035     -0.020378      0.063611
Au     16.42615     20.58055     18.39101        -0.043201     -0.031332     -0.043225
Au     14.72017     20.34976     16.00696        -0.016944      0.010144      0.039610
Au     19.93953     19.18453     15.61253         0.034616     -0.069317      0.024827
