58
# total energy = -161.53618727 eVAu     10.57762     15.01015     12.82562         0.030769      0.042832      0.062748
Au     11.63238     13.07866     10.83507         0.008429     -0.006654      0.044929
Au     13.21806     13.83569     12.93062         0.061387      0.012663     -0.003135
Au     12.39361     10.82265     12.32219         0.034130     -0.042677     -0.062485
Au     13.83474     14.01532      9.32632        -0.020595     -0.021758      0.049625
Au     11.98120     15.84418     10.54113         0.100097     -0.009355      0.073287
Au     18.96177     13.25227     13.63013         0.018445     -0.031706      0.000052
Au     18.44388     13.93487     10.82047         0.052768      0.027804     -0.011951
Au     16.65176     15.42537      9.07497         0.021566      0.015830     -0.031506
Au     14.45445     11.72503     10.87751        -0.104330     -0.080198      0.059707
Au     14.97608     10.61048     13.45818        -0.006969      0.003138     -0.006049
Au     16.47028     12.69999      9.36982         0.031813     -0.019017     -0.055108
Au     17.59450     15.69983     12.97543         0.034046      0.006878     -0.059341
Au     20.39993     15.27567     12.23795        -0.007564     -0.002238     -0.042061
Au     15.57018     14.36571     11.56220         0.002418      0.018377      0.059236
Au     17.04501     11.85811     12.13985         0.041978     -0.038545     -0.026142
Au     11.60504     17.56782     12.79945         0.002322      0.031212      0.027323
Au     13.27351     19.83715     12.96536        -0.004560      0.062460     -0.024535
Au     12.85378     18.48120     10.57156        -0.006356      0.042221     -0.022704
Au     15.15894     19.95039     10.84887         0.005749      0.014646      0.032701
Au     16.56225     18.18848     13.76255        -0.022113     -0.030056     -0.030071
Au     17.83012     19.33580     11.41407        -0.003679     -0.030126      0.011895
Au     14.41832     16.16822     13.70633         0.018474     -0.020115      0.002216
Au     15.85601     20.90298     13.37136        -0.052867     -0.028767      0.031560
Au     18.70413     16.78753     10.49793        -0.015565      0.016269     -0.006683
Au     14.14739     16.73146      8.90332         0.036929     -0.029787      0.011628
Au     16.62487     18.20855      9.11493        -0.036804      0.028713      0.016715
Au     15.45081     17.16004     11.39361        -0.040286      0.010745      0.017946
Au     19.62087     17.82828     13.04914        -0.025448      0.043943     -0.005189
Au     11.90370     16.16620     15.17061        -0.035258      0.020182     -0.024309
Au     13.45834     11.86450     18.04529        -0.001983     -0.031333     -0.039073
Au     10.81878     12.43506     13.81851        -0.080121     -0.013653     -0.016281
Au     12.55884     10.37015     15.03323        -0.019248     -0.013414      0.004052
Au     13.61220     12.92091     15.46849         0.039627     -0.002089      0.026587
Au     11.94767     14.66315     17.60631        -0.066003     -0.042903     -0.020009
Au      9.89116     14.39670     15.54152        -0.033904      0.017272     -0.002852
Au     11.11411     12.16374     16.61931         0.000248      0.048429      0.022891
Au     14.48411     15.32722     16.48890         0.013219     -0.021860     -0.028091
Au     19.86619     15.64336     14.92417         0.049261      0.035392      0.015912
Au     16.91593     15.07703     18.45821         0.020099      0.028156     -0.038371
Au     16.18476     12.54592     17.55583         0.007919      0.000932     -0.031567
Au     15.06328     10.42059     16.22404        -0.018422     -0.023196      0.030831
Au     14.36321     14.22543     19.08804        -0.043127     -0.018366      0.013012
Au     15.97318     13.83999     14.37179        -0.001742      0.001009      0.010264
Au     17.30758     11.44387     14.98896         0.002075     -0.018701      0.011388
Au     18.41810     13.65181     16.36942         0.053394      0.008473      0.004877
Au     11.93745     18.93226     15.24224        -0.019034      0.093827     -0.005733
Au     12.58191     17.44880     17.61170        -0.027108      0.000620      0.016463
Au     19.01588     18.26888     15.82468         0.042441     -0.009824     -0.031924
Au     14.60314     18.01053     15.71185         0.053107     -0.063989     -0.023152
Au     16.73290     20.02736     16.06748         0.028888      0.023687      0.063695
Au     19.30427     16.10909     17.57666        -0.000690     -0.002583     -0.005780
Au     14.88720     16.92212     19.12276        -0.033786      0.001346     -0.035764
Au     14.72037     19.49243     18.03238        -0.020137     -0.021074     -0.031949
Au     18.53625     20.26993     13.95423        -0.002297     -0.007700     -0.025848
Au     17.18728     17.97594     17.99247        -0.012437      0.012823     -0.010500
Au     14.04016     20.74168     15.54131         0.005919      0.016439     -0.038748
Au     17.03187     16.15346     15.71333        -0.055083     -0.004632      0.075374
