58
# total energy = -161.10662307 eVAu     10.08677     13.74858     12.72255         0.065874      0.066243      0.007994
Au     11.74279     14.02928     10.40847        -0.031421      0.105976     -0.004731
Au     11.96729     11.71097     11.94905         0.018588     -0.019411      0.109561
Au     12.49539     15.68596     12.85567         0.026999     -0.175781     -0.046296
Au     16.88076     12.61284     12.27922         0.056182      0.019513     -0.030347
Au     14.18533     13.61570     11.97294        -0.066726     -0.018786     -0.167520
Au     16.77463     14.67456     10.26010         0.123828     -0.009793      0.032041
Au     15.43820     12.28098      9.83379        -0.060139     -0.022051     -0.020365
Au     18.23706     15.03635     12.66789         0.030860      0.046335      0.029969
Au     14.16284     14.72559      9.27357        -0.134598     -0.050448     -0.090502
Au     14.64863     10.84033     12.08141         0.047461     -0.018551      0.035999
Au     10.10600     16.14791     11.30625        -0.067403     -0.021730     -0.080767
Au      9.81663     16.28189     14.03765        -0.001691      0.009645      0.083092
Au     11.38466     18.26278     12.65090        -0.057393      0.103592     -0.126538
Au     12.98996     20.01246     14.08331        -0.110945      0.359348     -0.007087
Au     12.53496     16.86497     10.18831        -0.150657     -0.022436      0.038259
Au     13.54099     19.26148     11.20766         0.041707     -0.064485      0.040231
Au     17.72412     17.16554     10.84947         0.062014     -0.061729     -0.035316
Au     18.74686     19.59222     11.58257        -0.094018      0.161943      0.057805
Au     15.09705     21.04944     12.68076         0.019884      0.172777     -0.085207
Au     19.21556     17.54444     13.39838         0.019113     -0.107733      0.043712
Au     15.14811     17.30509      9.51035         0.119851      0.063070     -0.101816
Au     16.21314     19.66506     10.45222         0.016571     -0.015740      0.025016
Au     17.66465     21.07980     13.75957         0.003627      0.029547     -0.116049
Au     16.34038     18.57811     13.04750         0.215598      0.112282      0.085945
Au     15.24089     16.22302     12.07254        -0.041492      0.088356     -0.024043
Au     20.28301     20.09114     13.85089        -0.136841     -0.012291      0.007180
Au     12.32934     15.69389     15.71402         0.011601     -0.214403      0.011945
Au     13.17453     12.58266     19.04389         0.064970     -0.003840      0.001155
Au      9.96779     13.88926     15.61394        -0.068226      0.105316     -0.039451
Au     13.10962     10.47407     14.37873        -0.054330     -0.037583     -0.033614
Au     12.79262     13.24586     14.40758        -0.220687     -0.016256     -0.010551
Au     10.47387     11.49705     14.32434         0.094888     -0.066885     -0.075091
Au     11.27397     14.45630     18.19794        -0.041401      0.005645     -0.026998
Au     11.62275     11.98877     16.80534         0.055470     -0.042043      0.000719
Au     14.36147     13.73470     16.75185        -0.104490     -0.088795      0.176684
Au     19.28497     15.56405     15.29186         0.210040     -0.037609     -0.033923
Au     15.79247     13.62948     19.20079         0.001773     -0.097622      0.072752
Au     14.20206     10.92587     16.92985        -0.033393     -0.038084      0.030674
Au     13.59756     15.37467     19.49936         0.054048      0.042054     -0.032363
Au     15.72238     11.49425     14.59633        -0.008283     -0.207421     -0.059754
Au     15.09482     14.84144     14.39919         0.195957      0.005694      0.073873
Au     17.50799     14.62008     17.22196         0.267449      0.073455      0.180359
Au     16.75196     12.01230     17.12311        -0.031391     -0.078257     -0.059286
Au     17.79666     13.27360     14.80115        -0.039562     -0.008392     -0.016670
Au     11.27490     18.33050     15.49140        -0.180735     -0.002553     -0.031701
Au      9.74677     16.37010     16.79924        -0.164977      0.033573     -0.001344
Au     11.93956     17.24951     18.18008        -0.081848      0.074658     -0.020893
Au     18.34631     19.32294     15.77892        -0.057432     -0.040918     -0.047297
Au     14.73331     16.47791     16.92417         0.032792      0.031185      0.055985
Au     16.86535     16.86150     15.12436        -0.107194      0.025124     -0.005407
Au     15.55631     20.40323     15.41791        -0.069577     -0.026544     -0.084569
Au     18.50101     17.18966     17.49421         0.076129     -0.072232     -0.015130
Au     14.10078     17.55973     14.36011         0.073976     -0.255218      0.089044
Au     14.28077     18.11301     19.28090        -0.036381      0.010631      0.165429
Au     13.47911     19.26796     16.85039         0.122617      0.100736     -0.007976
Au     16.42113     16.33624     19.16509         0.057187      0.073194      0.110885
Au     16.29092     18.91694     17.62091         0.066175      0.035722     -0.027703
