58
# total energy = -159.59444401 eVAu     10.78933     14.88885     12.84710        -0.371007     -0.047074     -0.093481
Au     11.79957     13.20609     10.72931        -0.045613     -0.067011      0.109877
Au     13.36257     13.65212     13.07582        -0.622686      0.103761     -0.874382
Au     12.26728     10.88971     12.30458        -0.104017     -0.094439     -0.099856
Au     13.99509     14.09456      9.11070         0.005898     -0.156776      0.012668
Au     12.94502     15.74459     11.11883        -0.552167     -0.088614     -0.457159
Au     18.80618     13.31497     13.60704         0.271469     -0.113874     -0.074536
Au     18.35178     13.99869     10.78942         0.245515     -0.112350     -0.038480
Au     16.62061     15.47511      9.06707         0.018797     -0.064688     -0.330797
Au     14.34457     11.83449     10.87095         0.062956     -0.144696     -0.327691
Au     14.72728     11.15854     13.62697         0.074130     -0.750829     -0.019630
Au     16.46168     12.68423      9.36205        -0.055071     -0.057723     -0.077112
Au     17.45081     15.74858     12.94652         1.111679     -0.430941     -0.356968
Au     20.26831     15.36035     12.16662         0.050610     -0.095602      0.056882
Au     15.53765     14.44907     11.55725        -0.070210     -0.620453     -0.835041
Au     16.87537     11.97687     12.16464         0.332449     -0.301548     -0.244836
Au     11.71613     17.43420     12.88390        -0.463900      0.227617     -0.055449
Au     13.96372     18.98965     13.14233        -0.330713      0.490448     -0.093901
Au     12.90796     18.45663     10.63212        -0.246196      0.280089     -0.330609
Au     15.13299     20.06567     10.77239         0.010899      0.039940     -0.142869
Au     16.66870     18.19628     13.76732         0.353232      1.147202     -0.130527
Au     17.76202     19.45106     11.39993         0.066537      0.192430     -0.051740
Au     14.58625     16.13513     13.61753        -0.584049      0.176966      0.048871
Au     15.92987     20.96742     13.29739         0.084376      0.086472      0.077178
Au     18.50550     16.89051     10.51614         0.400208     -0.027263     -0.199547
Au     14.20938     16.86612      8.81833         0.049970      0.087121     -0.081096
Au     16.63610     18.36596      8.99115        -0.136342     -0.110154      0.155384
Au     15.58979     17.23179     11.37319        -0.062046      0.627690     -1.050242
Au     19.50103     17.90323     12.99118         0.309030      0.037833     -0.050303
Au     12.27557     15.82023     15.09507        -0.489148      0.117390     -0.021131
Au     13.33597     11.85127     18.21542         0.046637      0.024173     -0.124830
Au     10.82212     12.41236     14.00037        -0.294703     -0.069417     -0.015818
Au     12.38484     10.31030     15.05702         0.037041      0.028236      0.017995
Au     13.39031     12.98647     15.59265        -0.337747     -0.693307      0.931184
Au     12.01475     14.48395     17.71018        -0.250040     -0.053832      0.231357
Au     10.05211     14.41002     15.69774        -0.253473      0.009763     -0.041648
Au     10.93610     11.97401     16.82669         0.111194      0.120660     -0.076428
Au     14.56046     15.26417     16.56150        -0.180172     -0.299417      0.587656
Au     19.75339     15.71448     14.84019         0.235921     -0.060698      0.087023
Au     16.85722     15.11901     18.39389         0.218965      0.041129      0.216432
Au     15.89402     12.78820     17.23136         0.145597     -0.489097      0.499030
Au     14.84466     10.43152     16.31164         0.084581     -0.135339      0.028629
Au     14.37851     14.19469     19.23755        -0.019220     -0.024312      0.079377
Au     15.87421     13.84478     14.37603         0.351832     -0.800418      0.278863
Au     17.18249     11.43178     15.02903         0.080985      0.082842     -0.064681
Au     18.30259     13.71374     16.30723         0.388620     -0.009243      0.143701
Au     12.09039     18.70487     15.26049        -0.244436      0.297948      0.116226
Au     12.53710     17.22424     17.51719        -0.081965      0.193027      0.274130
Au     18.91064     18.32465     15.73148         0.308311      0.091616      0.178372
Au     14.78218     17.82775     15.70993        -0.665501      1.159136      0.738662
Au     16.71698     20.10506     16.00592         0.019152      0.275932      0.035946
Au     19.19735     16.19469     17.48765         0.036246     -0.042853      0.045063
Au     14.80573     16.89727     19.06764        -0.047879      0.179424      0.277336
Au     14.52909     19.47695     17.95344         0.019265     -0.153465     -0.241389
Au     18.61991     20.39951     13.92037        -0.124522      0.018431      0.043599
Au     17.00134     17.99521     17.80129         0.183093      0.088204      0.395356
Au     14.05755     20.64970     15.41403         0.018224      0.041097      0.150464
Au     16.95117     16.12866     15.58883         0.899402     -0.151145      0.784913
