58
# total energy = -160.96942314 eVAu     10.10349     13.73887     12.72451         0.038255      0.037210      0.048133
Au     11.77929     14.03437     10.43337        -0.046231     -0.007373     -0.038769
Au     11.98889     11.68139     11.97618        -0.033736      0.040379     -0.033456
Au     12.49231     15.64736     12.85080        -0.002565      0.013389      0.026689
Au     16.91919     12.58908     12.27101        -0.075789     -0.024350     -0.113209
Au     14.20503     13.58190     12.00316         0.023783      0.065195     -0.103497
Au     16.82456     14.66607     10.27285        -0.100063     -0.109552     -0.067020
Au     15.43181     12.26669      9.85640        -0.010085      0.063332     -0.024098
Au     18.02917     15.11917     12.75073         0.290481      0.083406      0.079175
Au     14.19697     14.74465      9.30176        -0.046268     -0.059951     -0.064135
Au     14.66017     10.80916     12.10782         0.044172     -0.026796      0.000482
Au     10.12391     16.14023     11.31923        -0.098700      0.035541     -0.054842
Au      9.81380     16.28496     14.05545         0.020240      0.001154     -0.114933
Au     11.37866     18.28028     12.65406         0.013801     -0.016518     -0.067731
Au     12.98142     20.05634     14.09983        -0.015116      0.200706     -0.042527
Au     12.54840     16.86023     10.19606        -0.058025      0.030608      0.035980
Au     13.63150     19.18389     11.29750         0.009249      0.012130     -0.006412
Au     17.73121     17.16871     10.80061         0.073056      0.094266      0.087659
Au     18.76492     19.61457     11.54925        -0.031367      0.022708      0.039688
Au     15.12672     21.10296     12.67212        -0.088443      0.021174     -0.079766
Au     19.22012     17.56428     13.39596        -0.080891     -0.143065      0.034599
Au     15.17723     17.34592      9.46861        -0.017741     -0.047669     -0.018161
Au     16.25571     19.70434     10.40778        -0.070320     -0.000453      0.060570
Au     17.69194     21.08998     13.72174        -0.010433      0.018882      0.013400
Au     16.37618     18.60103     12.99310         0.103598      0.069196      0.015626
Au     15.18861     16.25210     12.04396         0.040165     -0.013823     -0.106997
Au     20.28838     20.09594     13.83182        -0.049640      0.001829      0.025498
Au     12.31110     15.67861     15.70248         0.131952     -0.020825      0.005290
Au     13.19681     12.53240     19.04736        -0.005006      0.022941      0.104856
Au      9.97082     13.87863     15.62417        -0.011530     -0.126319     -0.084880
Au     13.07847     10.43194     14.39591         0.043564     -0.012187     -0.002480
Au     12.74263     13.22652     14.40911         0.008652      0.042770      0.000962
Au     10.46763     11.46494     14.31442        -0.058240      0.011771      0.017248
Au     11.31160     14.42173     18.17521        -0.040545      0.054365     -0.001925
Au     11.64839     11.92616     16.79790        -0.086785      0.064852     -0.040883
Au     14.30002     13.71201     16.77526         0.040494      0.093608     -0.039900
Au     19.26931     15.58034     15.30664         0.084626     -0.045910     -0.173887
Au     15.80775     13.59081     19.20215         0.033090      0.029874      0.043769
Au     14.21322     10.87778     16.94855         0.011443     -0.053726     -0.004627
Au     13.62712     15.34976     19.49594         0.002475      0.019091     -0.021469
Au     15.59831     11.67033     14.60254        -0.009722     -0.277812     -0.057187
Au     15.08711     14.88407     14.42083         0.051003     -0.175698      0.101285
Au     17.33064     14.68670     17.10207         0.163150     -0.090639      0.227212
Au     16.75321     11.99702     17.11723         0.016748      0.016670     -0.035856
Au     17.82168     13.22877     14.78268         0.046678      0.136120      0.120355
Au     11.25629     18.35456     15.49237         0.010316     -0.029490      0.036882
Au      9.75850     16.35150     16.78737        -0.086000      0.146654      0.225705
Au     11.95787     17.24686     18.19475        -0.245751     -0.036044     -0.167389
Au     18.36878     19.32687     15.78035        -0.052421     -0.044925     -0.053040
Au     14.69659     16.49957     16.94553         0.033796     -0.090624     -0.085156
Au     16.82570     16.94836     15.12793         0.068179     -0.083161      0.064542
Au     15.58259     20.32182     15.36464        -0.029797      0.025995     -0.005314
Au     18.51948     17.15431     17.49792         0.048936      0.070145      0.024098
Au     14.10641     17.58103     14.33040        -0.087531     -0.132436      0.131487
Au     14.27550     18.10568     19.29250         0.064591      0.113242      0.203093
Au     13.50711     19.28508     16.86294        -0.016717      0.018148     -0.088911
Au     16.41787     16.34642     19.18885         0.070184     -0.052586      0.040655
Au     16.32162     18.89897     17.63027        -0.021222      0.044581     -0.016477
