58
# total energy = -161.60806361 eVAu     10.61411     15.06440     12.87627        -0.005078     -0.024355      0.016804
Au     11.58227     13.06207     10.91620        -0.009563      0.016163     -0.017074
Au     13.25115     13.82145     12.92153         0.036712     -0.031593      0.007458
Au     12.38661     10.75255     12.32256         0.018973      0.025384     -0.002183
Au     13.80981     13.97001      9.41093        -0.009520      0.001875      0.012775
Au     12.03965     15.84177     10.62515         0.060427     -0.002591      0.013732
Au     18.99237     13.23855     13.62234         0.009393     -0.001968     -0.001392
Au     18.47227     13.93167     10.80493        -0.018032     -0.010574      0.002952
Au     16.67023     15.42373      9.07576        -0.008601     -0.006111      0.006945
Au     14.45533     11.68156     10.91011        -0.005751     -0.021095      0.025673
Au     14.99042     10.60879     13.47213        -0.007374     -0.013349     -0.016548
Au     16.46109     12.69142      9.38857         0.015417      0.012136     -0.001805
Au     17.64478     15.70128     12.97680        -0.017502      0.020079     -0.012862
Au     20.41779     15.28143     12.21643         0.006174      0.009170      0.005423
Au     15.62111     14.34893     11.59056         0.002822      0.027038      0.003854
Au     17.08404     11.82315     12.13210         0.003681      0.007850     -0.001004
Au     11.63847     17.63417     12.81271         0.005447      0.034517     -0.031596
Au     13.17583     20.00214     12.91775         0.064758     -0.050911      0.030992
Au     12.86247     18.50629     10.54956        -0.004422      0.007769      0.021252
Au     15.15129     19.97152     10.89359         0.005970     -0.014041     -0.012512
Au     16.55472     18.15916     13.76093        -0.013653     -0.006974     -0.018998
Au     17.81607     19.31414     11.42026        -0.018197     -0.006335     -0.012182
Au     14.41289     16.13774     13.73814        -0.002918     -0.018334     -0.006408
Au     15.82855     20.88145     13.41398        -0.001133      0.012129     -0.030977
Au     18.70091     16.79394     10.47957        -0.005133      0.005785      0.012104
Au     14.14370     16.68049      8.92056         0.000542     -0.024459     -0.002613
Au     16.56328     18.21502      9.14192        -0.001974     -0.019892      0.031673
Au     15.39111     17.14565     11.41537        -0.005567      0.015145      0.031732
Au     19.63546     17.83675     13.03589        -0.011939     -0.000131      0.001172
Au     11.80379     16.26106     15.19393        -0.031640      0.014283      0.026232
Au     13.45449     11.82772     17.99631        -0.022550     -0.007238      0.000089
Au     10.80058     12.43203     13.76828        -0.003583      0.028868     -0.001962
Au     12.55759     10.37508     15.03923         0.005679     -0.022073      0.007990
Au     13.67906     12.88939     15.44327         0.030982      0.022272     -0.005617
Au     11.90080     14.68761     17.57557         0.016037      0.018631     -0.012905
Au      9.85329     14.39983     15.51101         0.007940     -0.004993      0.008870
Au     11.11859     12.20317     16.56897         0.028699      0.005548      0.011413
Au     14.45630     15.31976     16.47180        -0.024064     -0.015476      0.005308
Au     19.91505     15.64843     14.91824        -0.007363      0.007620     -0.023754
Au     16.90508     15.07352     18.43694        -0.012946     -0.011112     -0.004709
Au     16.18369     12.55951     17.48671        -0.015361     -0.007978     -0.002854
Au     15.07950     10.36547     16.23079         0.020911      0.001741     -0.013030
Au     14.32864     14.19675     19.05039         0.011150      0.007805     -0.032702
Au     16.04025     13.84315     14.38003        -0.018569      0.003846      0.007672
Au     17.33008     11.42371     14.99075         0.010298     -0.004682      0.000016
Au     18.46801     13.64952     16.36193        -0.016278     -0.003418     -0.023705
Au     11.93752     19.02251     15.23244         0.008773      0.024640      0.004274
Au     12.54733     17.48556     17.59736         0.005799      0.017467      0.010567
Au     19.03754     18.25602     15.81078        -0.019828     -0.001555     -0.005481
Au     14.59808     18.00502     15.70354        -0.015079      0.030680      0.008846
Au     16.75501     20.02787     16.09701        -0.035706     -0.025811      0.012116
Au     19.31106     16.10147     17.56941        -0.017799      0.005907     -0.008073
Au     14.85912     16.90209     19.06117        -0.005997     -0.005865     -0.017700
Au     14.70100     19.49154     18.01462         0.005144     -0.021060      0.003715
Au     18.50816     20.25596     13.94952         0.036478     -0.013137     -0.002631
Au     17.19326     17.97366     17.98977        -0.028479      0.009330      0.005341
Au     14.05233     20.76192     15.54477         0.004619      0.000070     -0.000147
Au     17.02829     16.14945     15.73251        -0.001223      0.003362     -0.013567
