58
# total energy = -159.18984039 eVAu     10.46271     15.00358     13.92814        -0.001088      0.060642      0.007376
Au     12.38376     14.64383     11.96991        -0.401218      0.073497     -0.376549
Au     12.65269     11.86056     11.33878        -0.092143     -0.137114      0.030737
Au     13.60258     10.24518     13.40948         0.055969      0.219263     -0.050048
Au     14.11137     13.09844     13.85947         0.000598     -1.148679     -0.216035
Au     11.35260     12.35459     13.73710         0.018739     -0.124790     -0.163538
Au     13.23299     15.52783     14.55498        -1.083255      0.264047     -0.245074
Au     17.02020     13.14684     13.61240         0.487474     -0.315572     -0.250073
Au     18.09967     15.58499     12.71717         0.449684     -0.242580     -0.225359
Au     15.18690     15.23442     12.60858         0.309835     -0.029731     -0.513793
Au     17.00142     13.88629     10.81160        -0.019747     -0.284945     -0.078438
Au     14.99996     16.19340      9.88916         0.157508      0.447252     -0.265679
Au     14.29076     13.68027     10.19864        -0.071654     -0.380505     -0.056889
Au     15.53135     11.67395     11.82954        -0.118222     -0.074284      0.018297
Au     11.42264     17.63535     13.78719        -0.255579      0.017705      0.039275
Au     13.18259     19.82432     13.50604        -0.018997     -0.054489      0.142441
Au     13.38649     17.31153     11.92339        -0.451863      0.164040     -0.398417
Au     14.53946     19.79628     11.11464         0.086386     -0.021619     -0.088590
Au     17.86957     16.38294     10.02788        -0.051829      0.034259     -0.206123
Au     17.43630     20.23655     11.10358        -0.164975     -0.081924     -0.040944
Au     14.83859     17.74325     14.48051        -0.620229      0.788182     -0.503525
Au     16.01019     20.29753     13.51998        -0.034493      0.614559     -0.341268
Au     19.15795     18.07059     11.82813         0.232054      0.115229     -0.041459
Au     16.24888     18.57982      9.20879        -0.019730     -0.003153      0.119673
Au     18.90025     20.38482     13.40929         0.143203     -0.015638      0.059644
Au     17.60483     17.95843     14.35874         1.002919      0.216792     -0.062418
Au     20.22293     16.76773     14.07717         0.230209     -0.011745     -0.013926
Au     16.25216     17.71143     12.04204        -0.065147      0.381763     -0.972661
Au     11.51347     13.63426     16.14983        -0.569231     -0.193159      0.179886
Au     13.02711     11.25225     15.88918        -0.030284     -0.221661      0.028216
Au     12.19131     14.94566     18.50645        -0.233266      0.189676      0.242821
Au     12.57371     12.25142     18.36778        -0.013437     -0.212739      0.083096
Au     16.42603     15.49524     17.86382         0.507786     -0.513528      0.868675
Au     14.55479     13.82058     19.48712         0.007181     -0.187005      0.277766
Au     14.37956     13.89985     16.52186         0.107160     -0.709570      0.377147
Au     16.55712     15.39507     20.72480         0.098978      0.039628     -0.146537
Au     17.18365     13.00383     19.25355        -0.024284      0.101189     -0.023503
Au     15.26090     11.47702     17.82027        -0.121717     -0.004691     -0.035172
Au     15.75270     11.11098     15.02816        -0.175940     -0.463458     -0.236210
Au     16.30528     15.55466     15.14465         0.303953     -0.564797     -0.190600
Au     19.19689     14.22895     17.80073         0.214078     -0.250058      0.099889
Au     17.12068     12.98983     16.38869         0.566388     -0.336710      0.327066
Au     19.07146     14.39756     15.01669         0.356584     -0.138752      0.034045
Au     12.47890     18.84849     16.06614        -0.286703      0.182642      0.109887
Au     14.02889     16.55808     16.93258        -0.762917      0.550564      0.604614
Au     14.13418     19.10073     18.44436        -0.094792      0.106337      0.154424
Au     14.16655     16.57171     19.81538        -0.292905      0.170817      0.308543
Au     11.03940     16.39235     16.30167        -0.211984      0.093023      0.001413
Au     11.82173     17.68963     18.60175        -0.052859      0.012915     -0.030863
Au     18.74391     19.00135     18.11933        -0.068470      0.129836      0.112400
Au     16.32954     18.02615     16.78839         0.370225      0.790642      0.656658
Au     17.59533     20.54081     15.84729         0.072400      0.254338      0.170277
Au     18.75524     16.48491     19.36878        -0.075680     -0.041405      0.181108
Au     16.48254     18.06626     19.69335         0.059517      0.278702      0.349085
Au     18.86383     16.67323     16.57814         0.665541      0.017590      0.042769
Au     16.40435     20.57683     18.34070         0.087204      0.026391      0.044046
Au     14.78233     20.35019     15.94545        -0.165820      0.291671      0.229719
Au     20.01047     19.08479     15.63629         0.058886      0.131112     -0.127300
