58
# total energy = -161.39139272 eVAu     10.10561     13.79099     12.73784         0.004729     -0.006665      0.008039
Au     11.68702     14.08124     10.40424        -0.002637      0.003213     -0.009442
Au     12.01575     11.75274     11.95561        -0.003248     -0.001484      0.009846
Au     12.47484     15.73085     12.84742         0.015271      0.006113      0.003245
Au     16.85162     12.64185     12.33220        -0.011713      0.009557      0.008117
Au     14.17139     13.69662     11.88320        -0.018194      0.022636      0.017723
Au     16.68402     14.70700     10.33346         0.001742      0.005259     -0.007365
Au     15.41548     12.29346      9.81910         0.006213     -0.001297      0.002624
Au     18.21156     15.03711     12.72895         0.017373      0.004449      0.004649
Au     14.08260     14.68806      9.16226        -0.005444     -0.000986      0.007568
Au     14.69406     10.86524     12.08536        -0.007227      0.007603      0.011819
Au     10.03401     16.17433     11.28450         0.000845      0.006209     -0.007185
Au      9.78031     16.32347     14.03156         0.015943     -0.006448      0.003092
Au     11.29438     18.31262     12.59383         0.009077      0.007558     -0.003201
Au     12.95414     20.04156     14.02565         0.014158     -0.001393     -0.011756
Au     12.49697     16.84917     10.16009        -0.005338     -0.000367      0.005469
Au     13.57251     19.16291     11.26146         0.003051     -0.008305     -0.003275
Au     17.75316     17.15245     10.91810         0.002751      0.001261      0.000191
Au     18.69913     19.62805     11.65356        -0.009362      0.006091      0.010447
Au     15.08028     21.09890     12.60773        -0.023448     -0.003120     -0.008095
Au     19.27697     17.50143     13.42667         0.000147      0.007969      0.003307
Au     15.17124     17.22147      9.50470         0.001781      0.003193      0.002982
Au     16.20907     19.57259     10.48413        -0.005322     -0.001531      0.002741
Au     17.62564     21.22324     13.73712         0.001359      0.011765     -0.015031
Au     16.40409     18.66275     13.18232        -0.001477     -0.013816      0.012667
Au     15.21840     16.34672     12.15643        -0.004143     -0.015932      0.023317
Au     20.21697     20.11036     13.90263        -0.006312      0.008066     -0.014145
Au     12.31324     15.68421     15.72247        -0.003294      0.003788      0.002308
Au     13.20339     12.58296     19.06280         0.001347     -0.002219      0.004339
Au      9.94111     13.91837     15.60118         0.016469     -0.001159     -0.001784
Au     13.14840     10.49091     14.35524        -0.005868      0.018545      0.010158
Au     12.73544     13.28935     14.33675        -0.008163     -0.006101     -0.005004
Au     10.51259     11.49926     14.30907        -0.017884      0.000536     -0.004369
Au     11.26418     14.47874     18.18062        -0.007536     -0.001001     -0.016519
Au     11.65048     12.01728     16.79447         0.002080      0.000085     -0.021254
Au     14.23681     13.70904     16.75560         0.004681     -0.016813     -0.006169
Au     19.38504     15.48490     15.30269        -0.009302     -0.006325      0.007090
Au     15.82318     13.68539     19.15411        -0.005735      0.001821     -0.006759
Au     14.19709     10.88266     16.91774         0.010974     -0.006129      0.019999
Au     13.60564     15.38269     19.45797         0.003134      0.008948     -0.020452
Au     15.84922     11.24720     14.60040        -0.003591      0.011886      0.011429
Au     15.15369     14.72714     14.39735         0.004047      0.003668     -0.020324
Au     17.94672     14.47225     17.49318        -0.013754     -0.001083     -0.020009
Au     16.70097     12.04555     17.11044        -0.005444     -0.002597     -0.004244
Au     17.75101     13.28239     14.87895        -0.015761      0.000786      0.003580
Au     11.23787     18.35010     15.44029        -0.003931     -0.019013      0.014862
Au      9.68803     16.40358     16.79247         0.016478     -0.002460     -0.003004
Au     11.92215     17.28768     18.13786        -0.006790     -0.008719     -0.017607
Au     18.22815     19.30102     15.67857         0.016701      0.000658      0.016073
Au     14.77286     16.42068     16.94823         0.038863     -0.002395      0.015259
Au     16.89060     16.74026     15.09987        -0.003296     -0.007874      0.001523
Au     15.49491     20.42637     15.36109        -0.005082     -0.007087      0.001331
Au     18.54285     17.16843     17.40417         0.000345      0.012544      0.009232
Au     14.11297     17.52908     14.44773        -0.001373      0.011522     -0.009953
Au     14.28778     18.09098     19.28706         0.009430      0.000437     -0.021231
Au     13.48257     19.26067     16.81800         0.005113     -0.006964      0.000292
Au     16.52167     16.36915     19.13551         0.002684     -0.011819      0.008777
Au     16.27783     18.88859     17.56995        -0.006116     -0.015060     -0.005923
