58
# total energy = -161.50211836 eVAu     10.57424     14.99731     12.82826         0.035192      0.055369      0.018834
Au     11.65056     13.08660     10.81504        -0.003475     -0.030006      0.062027
Au     13.21340     13.82850     12.93675         0.063656      0.021490      0.046306
Au     12.39941     10.83877     12.31639        -0.166644     -0.050461      0.080304
Au     13.84470     14.02948      9.30116         0.028752     -0.090051      0.094434
Au     12.00116     15.83989     10.54882         0.090554      0.059850      0.075147
Au     18.95593     13.26417     13.62794        -0.001882     -0.092482     -0.003973
Au     18.44211     13.93372     10.81342         0.026145      0.043726      0.001805
Au     16.65793     15.42793      9.06048         0.016090     -0.025592      0.005980
Au     14.43952     11.71718     10.87893         0.157505      0.096674     -0.139203
Au     14.96783     10.60765     13.45806         0.031584      0.016215      0.001993
Au     16.47725     12.69877      9.35176        -0.091395     -0.025109      0.071708
Au     17.58650     15.69782     12.97505         0.026062      0.008015     -0.083025
Au     20.39831     15.26988     12.23733        -0.035625      0.047069     -0.029930
Au     15.55959     14.37011     11.55805         0.020469     -0.002515     -0.000991
Au     17.03889     11.85852     12.13692         0.017608     -0.012286     -0.045728
Au     11.58330     17.55901     12.79983         0.068456      0.066676     -0.026773
Au     13.33112     19.76093     12.98341        -0.075607      0.084747     -0.032922
Au     12.84589     18.49558     10.56107        -0.037153     -0.055601      0.022244
Au     15.16080     19.95660     10.82894         0.027138      0.008686      0.045892
Au     16.56614     18.19038     13.75983        -0.007749      0.055198     -0.027584
Au     17.83212     19.34494     11.40526        -0.004656     -0.023399      0.060872
Au     14.41821     16.17719     13.69564         0.038619     -0.054855     -0.019729
Au     15.86200     20.91664     13.35805         0.006427     -0.084798      0.073015
Au     18.70295     16.79169     10.49833        -0.005109     -0.014339      0.011754
Au     14.15998     16.74373      8.89812         0.002943     -0.002900      0.025705
Au     16.63843     18.20917      9.10678        -0.038104      0.051179     -0.003263
Au     15.45650     17.17167     11.38325        -0.039997     -0.019419      0.057256
Au     19.61224     17.83142     13.04900        -0.020904      0.013789     -0.018195
Au     11.93264     16.13961     15.15861        -0.031632      0.043003      0.023353
Au     13.45995     11.86842     18.06151         0.000595     -0.036237     -0.013973
Au     10.79780     12.43356     13.83402         0.013311     -0.090081     -0.047836
Au     12.54513     10.36071     15.02776        -0.004099      0.040709     -0.006992
Au     13.59164     12.92573     15.48954         0.038566     -0.006578     -0.049241
Au     11.95354     14.65663     17.61984        -0.086912     -0.058084     -0.056941
Au      9.89290     14.40365     15.54982        -0.007738     -0.015168      0.045100
Au     11.11038     12.14692     16.63827        -0.022458      0.107621     -0.012690
Au     14.49194     15.32428     16.49613         0.003512     -0.030689     -0.010408
Au     19.85261     15.64276     14.92739         0.077020      0.071078     -0.023346
Au     16.92023     15.07682     18.45865        -0.032922      0.040548     -0.036864
Au     16.19021     12.53543     17.57195         0.009268      0.052233     -0.018437
Au     15.05135     10.43964     16.22109        -0.015004     -0.046989      0.016197
Au     14.36037     14.22950     19.10682         0.021417      0.014514     -0.021934
Au     15.95635     13.83291     14.36665        -0.029432      0.025180      0.025946
Au     17.30592     11.45136     14.98531        -0.022173     -0.029488      0.021187
Au     18.41091     13.65582     16.36989         0.041234     -0.002299      0.018590
Au     11.93634     18.91804     15.25196        -0.021217      0.043889     -0.024435
Au     12.58160     17.43612     17.61862        -0.017348     -0.003456     -0.011529
Au     19.01405     18.27725     15.82003         0.007607     -0.030781      0.004147
Au     14.60771     18.00386     15.71566         0.048930     -0.030058     -0.015752
Au     16.72959     20.03283     16.07558         0.058750      0.017498     -0.033178
Au     19.30949     16.11303     17.57911        -0.060724      0.037997     -0.016736
Au     14.88902     16.93034     19.13891        -0.023371     -0.046251     -0.050253
Au     14.70921     19.49270     18.03486        -0.020116     -0.023393     -0.047931
Au     18.55120     20.28715     13.94935        -0.109860     -0.059459      0.001174
Au     17.18000     17.98560     17.99997         0.035663     -0.035177     -0.049668
Au     14.03552     20.73565     15.53854         0.046198      0.011969     -0.027586
Au     17.02668     16.15843     15.71198        -0.025965     -0.006920      0.096073
