58
# total energy = -160.98864577 eVAu     10.75964     15.15448     13.17440        -0.084279      0.009964     -0.003209
Au     12.21174     13.83262     10.97273        -0.003519     -0.009951     -0.009633
Au     13.16598     13.89891     13.82291         0.034354      0.077173      0.060572
Au     13.46242     11.53878     12.10869         0.038089     -0.034978      0.028750
Au     13.65599     15.24584      9.11517         0.001484      0.001235      0.004391
Au     10.85732     12.33471     12.83390        -0.052899      0.040649      0.010879
Au     18.24987     12.75641     14.47580        -0.042524      0.008303     -0.003666
Au     14.83525     10.57857     14.29664         0.054145     -0.036655      0.043209
Au     17.49971     14.00675     10.92716        -0.014656     -0.015911      0.020433
Au     17.00854     15.40307     13.49603         0.069043     -0.039110     -0.000230
Au     19.54565     14.55129     12.74880        -0.029057      0.005884      0.087149
Au     14.95980     12.94764     10.14825         0.036590     -0.018011      0.040560
Au     14.72315     15.08927     11.84158        -0.012149      0.013958      0.065895
Au     16.22621     12.19768     12.58580         0.037014      0.011498      0.001321
Au     11.90645     17.60840     13.73456        -0.009812      0.074735      0.062062
Au     12.95918     19.18960     11.75959        -0.013295      0.061589     -0.006182
Au     12.03852     16.61781     11.10031         0.071687      0.022958      0.019345
Au     14.18290     17.90386      9.69312        -0.058218     -0.069155     -0.008912
Au     18.44833     16.70095     11.19973        -0.041149     -0.014043      0.040286
Au     16.29888     16.01229      9.48587         0.011366     -0.057157      0.053998
Au     15.49637     20.39034     12.02627         0.003660      0.072390     -0.012499
Au     13.86906     19.67824     14.32025        -0.039432      0.039927      0.016916
Au     16.53313     20.72647     14.61182        -0.010175      0.019020      0.003941
Au     18.10439     19.26682     12.44780        -0.041173      0.000178     -0.002242
Au     16.80893     18.72000     10.07306         0.019115     -0.000087     -0.027241
Au     15.43835     17.66758     12.33864         0.013689      0.007271      0.000852
Au     19.58050     17.18100     13.77262         0.009797     -0.006170      0.028249
Au     14.46735     16.29967     14.52886         0.006315     -0.052362      0.018891
Au     12.98357     11.90576     19.15217         0.016556      0.008432     -0.014721
Au     10.50033     13.31469     15.41142        -0.017156      0.045490     -0.021134
Au     12.14229     10.78714     14.70031         0.064385     -0.021566      0.026801
Au     13.21408     12.87928     16.38806         0.041576     -0.041663     -0.039410
Au     11.31643     14.03281     18.10898         0.051953      0.033206     -0.012845
Au     14.08680     10.35185     17.02248         0.011644     -0.078417     -0.018890
Au     13.89647     14.42981     19.70603        -0.033153     -0.025092      0.025867
Au     11.48110     15.84492     15.88079        -0.112660      0.047587      0.012068
Au     11.07794     11.24821     17.25670         0.010513     -0.007762     -0.081687
Au     14.36218     15.22540     17.08656        -0.010113      0.061100     -0.054224
Au     19.27560     15.41968     18.34255         0.009495     -0.002985     -0.059154
Au     15.63855     12.34357     18.52261        -0.014720      0.014555     -0.061266
Au     19.65179     14.96455     15.55438        -0.005501     -0.056802     -0.013179
Au     16.67577     14.84463     19.26645        -0.016841     -0.020286      0.022053
Au     15.61854     13.50918     15.15313         0.029267     -0.039763     -0.076705
Au     17.04294     15.74925     16.46818         0.021337     -0.014344     -0.009393
Au     16.70790     11.08296     16.20802         0.009383      0.011502     -0.022871
Au     18.04084     13.18724     17.30942         0.095154      0.016012     -0.019589
Au     12.37127     18.43813     16.31342         0.058901      0.081203     -0.046989
Au     13.28438     19.15357     18.78452        -0.041300      0.003131      0.011942
Au     12.30594     16.57511     18.51633         0.014263      0.034480      0.009724
Au     19.37627     17.60281     16.63483        -0.012925      0.003033     -0.064442
Au     15.16779     17.85993     16.91467         0.003452     -0.018390      0.050658
Au     16.93032     17.95040     14.75567        -0.001749     -0.017933      0.005235
Au     17.58884     19.78481     17.15352        -0.100071     -0.009496     -0.044053
Au     14.93890     17.01392     19.71914        -0.042896     -0.030591      0.004660
Au     17.65123     17.55470     18.96276        -0.010133     -0.017155     -0.023646
Au     19.20619     19.78211     14.91802        -0.006044     -0.066967      0.033869
Au     15.92213     19.66289     19.34985         0.062968      0.001951     -0.025591
Au     14.77538     20.57182     16.80453        -0.029597     -0.005615     -0.026976
