58
# total energy = -160.53982167 eVAu     10.83348     15.07664     13.16216         0.064377      0.108987     -0.054930
Au     12.23759     13.76654     10.92497         0.056674      0.062040      0.061796
Au     13.23848     13.69030     13.81935         0.101728      0.239406     -0.184566
Au     13.38963     11.37889     12.02960        -0.014364      0.178458      0.065052
Au     13.66488     15.27930      9.08334        -0.049598     -0.026012      0.052523
Au     10.79372     12.29726     12.75338         0.086878      0.037887      0.032601
Au     18.22177     12.70314     14.37760        -0.112882      0.111964      0.096335
Au     14.68826     10.81512     14.41806         0.085378     -0.146550     -0.038188
Au     17.48173     14.03224     10.90434         0.001408     -0.009850      0.009327
Au     17.07410     15.37722     13.53736        -0.197665      0.055259      0.058016
Au     19.56965     14.56861     12.69523        -0.066005      0.009730      0.034870
Au     14.94653     12.94898     10.10241        -0.043842      0.051958      0.047671
Au     14.71705     15.10531     11.85375        -0.065881     -0.112734      0.205985
Au     15.98453     12.45666     12.65423         0.194456     -0.086723     -0.020681
Au     12.00714     17.52376     13.74574        -0.075947     -0.044965      0.029749
Au     13.01265     19.21261     11.83026        -0.001931     -0.030907     -0.069165
Au     12.19136     16.59218     11.13672        -0.160833     -0.050023      0.044435
Au     14.16324     17.98636      9.65721         0.015534     -0.064273      0.014398
Au     18.35143     16.76609     11.26093         0.102667     -0.010341     -0.010409
Au     16.25680     16.07705      9.54273         0.068804      0.007790     -0.053402
Au     15.50064     20.48434     11.99669         0.039033     -0.136239      0.045138
Au     14.17805     19.32640     14.36192        -0.193594      0.142476     -0.015670
Au     16.59607     20.86006     14.57176        -0.024730     -0.161679      0.026913
Au     18.11282     19.38607     12.42370        -0.026816     -0.091032      0.036109
Au     16.81284     18.83061     10.01296         0.007283     -0.062125      0.056346
Au     15.54046     17.67843     12.26086        -0.021576     -0.023179      0.196151
Au     19.58862     17.21339     13.77069        -0.063442     -0.008775     -0.034620
Au     14.53691     16.22098     14.57306         0.075937     -0.034557     -0.098332
Au     12.96206     11.85020     19.25558        -0.006933      0.107787     -0.121151
Au     10.47148     13.26659     15.37509         0.015218     -0.046016      0.038192
Au     11.97700     10.74226     14.69147         0.047625      0.025921      0.059538
Au     13.18762     12.83957     16.43165         0.032887      0.128024      0.076593
Au     11.31066     14.00380     18.16719         0.068689      0.004435     -0.034974
Au     13.99101     10.27699     17.08174         0.068803      0.059201     -0.009828
Au     13.80267     14.42373     19.85309         0.068964      0.006113     -0.139304
Au     11.85798     15.61010     15.82807        -0.149004      0.178065      0.037348
Au     11.05721     11.24247     17.29908         0.042830      0.035323     -0.063232
Au     14.40010     15.24118     17.26363         0.015720      0.009136     -0.166284
Au     19.26218     15.41484     18.29750        -0.104438      0.009007     -0.086455
Au     15.50973     12.45841     18.34447         0.105430     -0.031648      0.139759
Au     19.64400     14.93246     15.48466        -0.065050      0.032998      0.115211
Au     16.65195     14.85020     19.26384        -0.049327     -0.009280     -0.030482
Au     15.66462     13.52605     15.34242         0.046224      0.026042     -0.144101
Au     17.06331     15.81330     16.47014        -0.032801     -0.031026     -0.026332
Au     16.72587     11.00979     16.22629        -0.098300      0.037252     -0.088806
Au     18.05582     13.17046     17.22478         0.018197      0.177540      0.060952
Au     12.41674     18.33538     16.32639        -0.003451      0.023557     -0.069584
Au     13.22204     19.19733     18.78042         0.033056     -0.080218     -0.010426
Au     12.21653     16.58736     18.57259         0.104433     -0.049332     -0.041582
Au     19.37075     17.62620     16.58700        -0.017142     -0.054701      0.045798
Au     15.20513     17.92343     16.97392        -0.005953     -0.143337     -0.097657
Au     16.95023     18.02106     14.73043        -0.074595     -0.089320     -0.029674
Au     17.53711     19.83493     17.07418         0.022552     -0.026374      0.074012
Au     14.85924     17.02080     19.75193         0.024376     -0.056204     -0.064829
Au     17.59120     17.55610     18.88672         0.066892     -0.013355      0.022063
Au     19.26350     19.82927     14.89890        -0.089510     -0.061910      0.007247
Au     15.88663     19.67989     19.30380         0.051290     -0.021171     -0.015694
Au     14.72059     20.63150     16.75795         0.082269     -0.052503      0.030229
