58
# total energy = -160.97585079 eVAu     10.09974     13.73944     12.72294         0.046355      0.042575      0.054514
Au     11.77436     14.03341     10.43023        -0.039589      0.006230     -0.036474
Au     11.98623     11.68538     11.97223        -0.034838      0.032311     -0.017159
Au     12.49287     15.65396     12.85104        -0.002907     -0.018078      0.023417
Au     16.91513     12.59418     12.27625        -0.090741     -0.055777     -0.169996
Au     14.20137     13.58616     12.00156         0.021810      0.050068     -0.140393
Au     16.81915     14.67098     10.27294        -0.112068     -0.153520     -0.092506
Au     15.43308     12.26710      9.85293        -0.010641      0.081489     -0.006690
Au     18.05524     15.10270     12.73443         0.313044      0.138645      0.130999
Au     14.19267     14.74343      9.29870        -0.050514     -0.079625     -0.063352
Au     14.65704     10.81473     12.10320         0.055536     -0.025045      0.016753
Au     10.12332     16.14066     11.31834        -0.098923      0.034778     -0.051406
Au      9.81393     16.28436     14.05625         0.014110      0.004702     -0.157997
Au     11.37987     18.27781     12.65584        -0.010768     -0.014692     -0.098859
Au     12.98337     20.04232     14.09821        -0.025130      0.302714     -0.044444
Au     12.54826     16.86041     10.19385        -0.087207      0.024912      0.041810
Au     13.61645     19.19621     11.28311         0.023828      0.004784     -0.000154
Au     17.72786     17.16519     10.80649         0.095812      0.130486      0.084463
Au     18.76338     19.61005     11.55375        -0.058451      0.040641      0.036417
Au     15.12397     21.09341     12.67566        -0.086571      0.042290     -0.093329
Au     19.22149     17.56580     13.39511        -0.091028     -0.203520      0.053610
Au     15.17242     17.34005      9.47602         0.006468     -0.029382     -0.031109
Au     16.25017     19.69815     10.41329        -0.055657     -0.004392      0.069730
Au     17.68736     21.08811     13.72800         0.008712      0.010477     -0.008802
Au     16.36684     18.59473     13.00194         0.156052      0.113974     -0.005363
Au     15.19637     16.24739     12.05197         0.026502      0.001908     -0.148567
Au     20.28903     20.09486     13.83431        -0.065452      0.013433      0.024724
Au     12.31002     15.68235     15.70431         0.173196     -0.056162      0.000583
Au     13.19307     12.54012     19.04388         0.007510      0.014435      0.126659
Au      9.97059     13.88450     15.62502        -0.010973     -0.180417     -0.107693
Au     13.08239     10.43912     14.39328         0.046491     -0.018791     -0.005182
Au     12.75123     13.22839     14.40852        -0.025711      0.053297      0.014963
Au     10.46967     11.46959     14.31555        -0.045009      0.021644      0.019630
Au     11.30665     14.42582     18.17892        -0.046605      0.062969     -0.003007
Au     11.64652     11.93491     16.80051        -0.096594      0.055464     -0.061291
Au     14.30922     13.71270     16.77290         0.027905      0.127291     -0.059931
Au     19.26940     15.57863     15.30932         0.104904     -0.038798     -0.218463
Au     15.80450     13.59657     19.20062         0.034852      0.018947      0.056541
Au     14.21112     10.88728     16.94565         0.013504     -0.077634     -0.004164
Au     13.62195     15.35382     19.49674         0.019082     -0.003180     -0.011208
Au     15.62000     11.64947     14.60329        -0.078527     -0.318552     -0.075832
Au     15.08718     14.88127     14.41331         0.050230     -0.174455      0.175559
Au     17.35540     14.67806     17.11578         0.158404     -0.088123      0.238365
Au     16.75242     11.99942     17.11874         0.025314      0.002006     -0.024832
Au     17.81541     13.23206     14.78222         0.098102      0.168367      0.148197
Au     11.25989     18.35145     15.49086        -0.026877     -0.032045      0.058634
Au      9.75863     16.35000     16.78259        -0.086662      0.193954      0.289234
Au     11.96297     17.24867     18.19720        -0.348293     -0.059979     -0.208080
Au     18.36647     19.32737     15.78131        -0.056129     -0.048688     -0.051583
Au     14.70205     16.49886     16.94515         0.018390     -0.119514     -0.131827
Au     16.83089     16.93621     15.12584         0.050091     -0.076128      0.065906
Au     15.57934     20.33457     15.37323        -0.041528      0.012725     -0.002525
Au     18.51513     17.15831     17.49672         0.060397      0.071883      0.026465
Au     14.10715     17.58248     14.33131        -0.070893     -0.210628      0.166879
Au     14.27394     18.10359     19.28423         0.104153      0.141615      0.277965
Au     13.50256     19.28104     16.86345         0.002407      0.056113     -0.109278
Au     16.41646     16.34593     19.18347         0.083410     -0.049354      0.068405
Au     16.31652     18.90048     17.62944         0.007714      0.059355     -0.028928
