58
# total energy = -159.87885494 eVAu     10.62408     14.29593     12.62755        -0.099041     -0.062629      0.042502
Au     12.11985     15.20368     10.44477         0.002434     -0.093925     -0.110595
Au     12.72420     12.62513     11.74103        -0.143161     -0.073521     -0.234186
Au     14.05206     11.41494     13.87434        -0.132248     -0.748938     -0.041986
Au     13.07313     14.20955     14.22642        -0.926067      0.077420     -0.293370
Au     11.28131     11.92831     14.04221        -0.030672      0.099417      0.016846
Au     14.16253     13.44969      9.54351        -0.075159     -0.015116     -0.031747
Au     18.11574     13.15153     12.39614         0.196995     -0.147890     -0.200307
Au     19.20056     15.17605     10.68991         0.057727     -0.124090     -0.030288
Au     14.52847     14.97983     12.04573        -0.400798     -0.340223     -0.789903
Au     16.67880     14.31249     10.10910         0.204444     -0.136673     -0.215735
Au     16.90496     11.29714     14.14928         0.122052      0.031488     -0.115342
Au     15.90489     13.92580     14.30061         0.434044     -0.713622     -0.130676
Au     19.83519     15.19515     13.38654         0.234296     -0.097869     -0.053122
Au     17.05006     15.83698     12.59630         0.733567     -0.472840     -0.893058
Au     15.55278     12.27839     11.77434         0.209837     -0.303075     -0.457860
Au     12.27028     16.61081     12.88088        -0.621073      0.036070     -0.094845
Au     12.48726     19.30827     12.82358        -0.377841      0.362737     -0.083907
Au     12.67613     17.95448     10.42171         0.014606      0.137936     -0.083143
Au     14.77490     20.62057     11.93623        -0.029666      0.029671     -0.064157
Au     17.22205     17.14644     10.03873         0.266717     -0.078134     -0.382762
Au     17.32490     19.59917     11.38218         0.106025      0.225090     -0.107378
Au     16.80086     21.09889     13.86827         0.092495      0.059359     -0.018282
Au     19.27167     17.63174     11.96661         0.234032     -0.037668     -0.146630
Au     14.65964     16.22973      9.44361        -0.107767     -0.062340     -0.282077
Au     15.17552     19.02888      9.59419        -0.084408     -0.080003      0.165888
Au     19.35088     20.04601     13.30906        -0.086645      0.047053      0.052630
Au     17.11436     18.20346     13.92314         0.301511      1.166916     -0.109953
Au     15.01078     17.71003     12.13067        -0.415407      0.777111     -0.701938
Au     12.90500     15.56094     16.73225        -0.418737      0.204067      0.187890
Au     11.30189     13.30682     16.48040        -0.382350     -0.151212      0.000463
Au     12.51867     10.76032     16.31368         0.174519      0.139131      0.004942
Au     12.92186     13.52436     18.75587        -0.029704     -0.135833      0.127509
Au     14.16331     15.92244     19.29188        -0.025675      0.017455      0.361581
Au     10.71779     15.68158     15.04449        -0.382466      0.061471      0.015089
Au     14.24090     13.01455     16.29712        -0.159712     -1.097863      0.799274
Au     17.67060     15.93115     15.22295         1.159185     -0.393565      0.596885
Au     14.51213     11.20144     18.49980         0.018288      0.203242     -0.209203
Au     15.63311     15.25787     16.83791         0.083611     -0.142415      0.958786
Au     20.37249     15.29115     16.12605        -0.026544     -0.085635      0.067976
Au     15.81821     13.63572     19.13218         0.212211      0.181620      0.060584
Au     15.26696     10.15885     16.03593        -0.018341      0.018492      0.064783
Au     18.24176     14.51989     17.77933         0.224277     -0.010089      0.202593
Au     16.90267     12.26525     16.91625         0.121781     -0.567981      0.365523
Au     18.70433     13.24163     15.13233         0.400719     -0.049598     -0.023191
Au     12.37654     17.95070     15.33603        -0.530703      0.264495      0.080775
Au     13.59103     19.85618     16.97208        -0.354731      0.117762      0.391023
Au     12.37022     17.75468     18.20075        -0.251937      0.236925      0.141983
Au     18.51176     19.75273     15.95884         0.201146      0.302635      0.068917
Au     16.00831     17.95372     16.50878         0.063331      0.651742      0.659652
Au     16.05348     20.87183     16.55774         0.207894      0.114153      0.144335
Au     18.94712     17.35097     17.38424         0.408157     -0.051631      0.241730
Au     14.77895     16.46556     14.54274        -0.513868      0.326647      0.035779
Au     14.88142     18.60401     19.11183        -0.014573      0.094894     -0.020088
Au     16.86873     16.59446     19.07722         0.083182     -0.099880      0.268885
Au     17.47196     19.39379     18.54657        -0.053194     -0.058310     -0.084487
Au     14.62560     19.44197     14.51532        -0.231458      0.439603     -0.185710
Au     19.95620     17.69371     14.72558         0.354860      0.007973      0.071105
