40
# total energy = -171.88533951 eVO      1.06077      2.46566      2.37086        -0.013261      0.081053     -0.004612
O      1.06077      7.72566      0.45186        -0.013261      0.081053     -0.004612
O      7.47427      2.46566      0.45186        -0.013261      0.081053     -0.004612
O      7.47427      7.72566      2.37086        -0.013261      0.081053     -0.004612
O     11.76623      8.05434      2.37086         0.013261     -0.081053     -0.004612
O     11.76623      2.79434      0.45186         0.013261     -0.081053     -0.004612
O      5.35273      8.05434      0.45186         0.013261     -0.081053     -0.004612
O      5.35273      2.79434      2.37086         0.013261     -0.081053     -0.004612
O      4.26752      0.16434      3.33036        -0.013261     -0.081053     -0.004612
O      4.26752      5.42434      1.41136        -0.013261     -0.081053     -0.004612
O     10.68102      0.16434      1.41136        -0.013261     -0.081053     -0.004612
O     10.68102      5.42434      3.33036        -0.013261     -0.081053     -0.004612
O      2.14598      5.09566      3.33036         0.013261      0.081053     -0.004612
O      2.14598     10.35566      1.41136         0.013261      0.081053     -0.004612
O      8.55948      5.09566      1.41136         0.013261      0.081053     -0.004612
O      8.55948     10.35566      3.33036         0.013261      0.081053     -0.004612
O     -0.00000      0.00000      3.18678         0.000000     -0.000000     -0.028773
O     -0.00000      5.26000      1.26778         0.000000     -0.000000     -0.028773
O      6.41350      0.00000      1.26778         0.000000     -0.000000     -0.028773
O      6.41350      5.26000      3.18678         0.000000     -0.000000     -0.028773
O      3.20675      2.63000      0.30828        -0.000000     -0.000000     -0.028773
O      3.20675      7.89000      2.22728        -0.000000     -0.000000     -0.028773
O      9.62025      2.63000      2.22728        -0.000000     -0.000000     -0.028773
O      9.62025      7.89000      0.30828        -0.000000     -0.000000     -0.028773
Au     12.23610      1.39511      1.90233        -0.007018     -0.040055      0.018998
Au     12.23610      6.65511     -0.01667        -0.007018     -0.040055      0.018998
Au      5.82260      1.39511     -0.01667        -0.007018     -0.040055      0.018998
Au      5.82260      6.65511      1.90233        -0.007018     -0.040055      0.018998
Au      0.59090      9.12489      1.90233         0.007018      0.040055      0.018998
Au      0.59090      3.86489     -0.01667         0.007018      0.040055      0.018998
Au      7.00440      9.12489     -0.01667         0.007018      0.040055      0.018998
Au      7.00440      3.86489      1.90233         0.007018      0.040055      0.018998
Au      2.61585      1.23489      2.86183        -0.007018      0.040055      0.018998
Au      2.61585      6.49489      0.94283        -0.007018      0.040055      0.018998
Au      9.02935      1.23489      0.94283        -0.007018      0.040055      0.018998
Au      9.02935      6.49489      2.86183        -0.007018      0.040055      0.018998
Au      3.79765      4.02511      2.86183         0.007018     -0.040055      0.018998
Au      3.79765      9.28511      0.94283         0.007018     -0.040055      0.018998
Au     10.21115      4.02511      0.94283         0.007018     -0.040055      0.018998
Au     10.21115      9.28511      2.86183         0.007018     -0.040055      0.018998
