18
# total energy = -101.65058144 eVH      0.62856      4.23183      9.01717         0.167344     -0.179835      0.082951
H      0.56472      1.22122      0.20691         0.146706      0.218384     -0.032890
H      3.25315      0.48349      8.16216        -0.179557      0.172807     -0.222686
H      3.18054      0.16625      0.72043        -0.138365     -0.053582      0.176150
H      1.87594      2.55380      6.97540         0.008412     -0.225608     -0.194277
H      0.62856      0.44717      4.46117         0.167344      0.179835      0.082951
H      0.56472      3.45778      4.76291         0.146706     -0.218384     -0.032890
H      3.25315      4.19551      3.60616        -0.179557     -0.172807     -0.222686
H      3.18054      4.51275      5.27643        -0.138365      0.053582      0.176150
H      1.87594      2.12520      2.41940         0.008412      0.225608     -0.194277
C      1.90445      1.71162      6.23008        -0.049239      0.441898      0.398635
C      1.90445      2.96738      1.67408        -0.049239     -0.441898      0.398635
N     -0.00013      0.36991     -0.00160         0.023304     -0.096442      0.019047
N     -0.00013      4.30909      4.55440         0.023304      0.096442      0.019047
O      1.50118      2.00716      5.04515         0.448244     -0.929607      0.890767
O      2.33412      0.58834      6.69245        -0.426849      0.737320     -1.117697
O      1.50118      2.67184      0.48915         0.448244      0.929607      0.890767
O      2.33412      4.09066      2.13645        -0.426849     -0.737320     -1.117697
