16
# total energy = -96.44189100 eVC      2.50489      0.72385      1.86508         0.746023      3.370037     -1.419335
C      2.83110      5.25385      1.18403        -0.746023      3.370037      1.419335
C      1.05243      8.33615      4.83432        -0.746023     -3.370037      1.419335
C      0.72623      3.80615      5.51538         0.746023     -3.370037     -1.419335
N     -0.05094      0.66291      0.01812         2.026650    -10.164169     -3.098457
N     -0.13766      1.83276      0.49679        -1.785677      2.727343      3.341725
N      1.82960      5.19291      3.33159        -2.026650    -10.164169      3.098457
N      1.91632      6.36276      2.85291         1.785677      2.727343     -3.341725
N      0.05094      8.39709     -0.01812        -2.026650     10.164169      3.098457
N      0.13766      7.22724      6.50321         1.785677     -2.727343     -3.341725
N      1.72773      3.86709      3.36782         2.026650     10.164169     -3.098457
N      1.64101      2.69724      3.84649        -1.785677     -2.727343      3.341725
O      2.81388      1.90128      1.30596        -0.778474     -0.616050      2.213721
O      2.52211      6.43128      1.74315         0.778474     -0.616050     -2.213721
O      0.74345      7.15872      5.39344         0.778474      0.616050     -2.213721
O      1.03522      2.62872      4.95626        -0.778474      0.616050      2.213721
