40
# total energy = -224.71361721 eVH      6.12207      1.29718      6.12660         0.144827      0.148935     -0.018372
H      4.92206      3.04175      4.94392         0.098162      0.062862     -0.011519
H      5.85544      4.22454      3.93613        -0.105278      0.078888      0.025298
H      5.82378      4.38061      5.73760        -0.003538     -0.083472      0.011256
H      6.12393      1.35989      3.71692         0.091777     -0.045835     -0.147302
H      4.42113      4.19422      1.77390        -0.144827     -0.148935     -0.018372
H      5.62114      2.44965      0.59122        -0.098162     -0.062862     -0.011519
H      4.68776      1.26686      8.28883         0.105278     -0.078888      0.025298
H      4.71942      1.11079      1.38490         0.003538      0.083472      0.011256
H      4.41927      4.13151      8.06962        -0.091777      0.045835     -0.147302
H      2.60767      4.19422      1.77390         0.144827     -0.148935     -0.018372
H      1.40766      2.44965      0.59122         0.098162     -0.062862     -0.011519
H      2.34104      1.26686      8.28883        -0.105278     -0.078888      0.025298
H      2.30938      1.11079      1.38490        -0.003538      0.083472      0.011256
H      2.60953      4.13151      8.06962         0.091777      0.045835     -0.147302
H      0.90673      1.29718      6.12660        -0.144827      0.148935     -0.018372
H      2.10674      3.04175      4.94392        -0.098162      0.062862     -0.011519
H      1.17336      4.22454      3.93613         0.105278      0.078888      0.025298
H      1.20502      4.38061      5.73760         0.003538     -0.083472      0.011256
H      0.90487      1.35989      3.71692        -0.091777     -0.045835     -0.147302
H     -0.00000      2.54123      7.06114         0.000000      0.073753     -0.215528
H     -0.00000      2.68709      2.87232         0.000000     -0.133245     -0.237526
H      3.51440      2.95017      2.70844         0.000000     -0.073753     -0.215528
H      3.51440      2.80431      7.22502         0.000000      0.133245     -0.237526
C      5.81061      3.68586      4.88992        -0.055620      0.028609      0.171282
C      4.73259      1.80554      0.53722         0.055620     -0.028609      0.171282
C      2.29621      1.80554      0.53722        -0.055620     -0.028609      0.171282
C      1.21819      3.68586      4.88992         0.055620      0.028609      0.171282
C     -0.00000      4.81338      0.62499         0.000000     -0.060995      0.651268
C     -0.00000      1.92461      6.15052         0.000000     -0.072524      0.100880
C     -0.00000      1.97838      3.70641         0.000000     -0.279419      0.033189
C      3.51440      0.67802      4.97769         0.000000      0.060995      0.651268
C      3.51440      3.56679      1.79782         0.000000      0.072524      0.100880
C      3.51440      3.51302     -0.64629         0.000000      0.279419      0.033189
N     -0.00000      4.81843      1.83140         0.000000     -0.052881     -0.406511
N     -0.00000      2.81413      4.93736         0.000000      0.053541      0.304587
N      3.51440      0.67297      6.18410         0.000000      0.052881     -0.406511
N      3.51440      2.67727      0.58466         0.000000     -0.053541      0.304587
O     -0.00000      4.79216      8.10414         0.000000      0.004608     -0.291646
O      3.51440      0.69924      3.75144         0.000000     -0.004608     -0.291646
