36
# total energy = -216.67859407 eVH      4.02750      2.36722      2.26964         0.020881     -0.031143      0.049193
H      4.21894      1.54527     -0.04722        -0.011622      0.037698     -0.038342
H      6.88328      0.96677      0.71147        -0.093868     -0.057086     -0.035686
H      0.70241      0.61443      3.30568         0.062980     -0.031406      0.055292
H      6.50571      0.83221      4.25990        -0.036019      0.034189      0.123836
H      4.96239      1.68685      4.24823         0.107841      0.002218      0.058800
H      4.02750      1.14878      9.44864         0.020881      0.031143      0.049193
H      4.21894      1.97073      7.13178        -0.011622     -0.037698     -0.038342
H      6.88328      2.54923      7.89047        -0.093868      0.057086     -0.035686
H      0.70241      2.90157     10.48468         0.062980      0.031406      0.055292
H      6.50571      2.68379     11.43890        -0.036019     -0.034189      0.123836
H      4.96239      1.82915     11.42723         0.107841     -0.002218      0.058800
C      5.82690      1.37819      2.41574        -0.068735     -0.001762     -0.099762
C      5.82690      2.13781      9.59474        -0.068735      0.001762     -0.099762
N      1.59118      3.44833      5.43754        -0.003423      0.042364     -0.004469
N      1.43106      3.14269      6.78772         0.012207     -0.006210     -0.027378
N      2.71814      3.01651      4.81720        -0.066529      0.022813     -0.008768
N      4.71694      1.79761      1.76412         0.015632      0.053771      0.090254
N      6.88937      0.97555      1.73012         0.004020     -0.015096     -0.053768
N      5.79237      1.35185      3.74991         0.056076     -0.022750     -0.067466
N      1.59118      0.06767     12.61654        -0.003423     -0.042364     -0.004469
N      1.43106      0.37331     13.96672         0.012207      0.006210     -0.027378
N      2.71814      0.49949     11.99620        -0.066529     -0.022813     -0.008768
N      4.71694      1.71839      8.94312         0.015632     -0.053771      0.090254
N      6.88937      2.54045      8.90912         0.004020      0.015096     -0.053768
N      5.79237      2.16415     10.92891         0.056076      0.022750     -0.067466
O      2.26285      2.58785      7.51655        -0.005752     -0.041629     -0.020284
O      0.30192     -0.00144      7.18591        -0.027348      0.006224      0.012305
O      3.66196      2.39171      5.35436        -0.006474     -0.066761      0.007139
O      2.72295      3.30500      3.59114         0.006167      0.022368     -0.041371
O      4.86118      2.13483      0.42058         0.033966      0.004659      0.000475
O      2.26285      0.92815      0.33755        -0.005752      0.041629     -0.020284
O      0.30192      0.00144      0.00691        -0.027348     -0.006224      0.012305
O      3.66196      1.12429     12.53336        -0.006474      0.066761      0.007139
O      2.72295      0.21100     10.77014         0.006167     -0.022368     -0.041371
O      4.86118      1.38117      7.59958         0.033966     -0.004659      0.000475
