36
# total energy = -216.29702354 eVH      4.05392      2.37850      2.29451         0.100554     -0.276739     -0.422904
H      4.20599      1.51412     -0.11792         0.887470      0.914972      0.966015
H      6.91691      1.00604      0.70693        -0.143288     -0.059291     -1.920678
H      0.65458      0.62340      3.35367        -0.462887      0.299710     -0.964038
H      6.48899      0.81671      4.29036        -0.126429      0.206157     -0.305200
H      4.96901      1.65582      4.25075        -0.086544      0.127111     -0.019937
H      4.05392      1.13750      9.47351         0.100554      0.276739     -0.422904
H      4.20599      2.00188      7.06108         0.887470     -0.914972      0.966015
H      6.91691      2.50996      7.88593        -0.143288      0.059291     -1.920678
H      0.65458      2.89260     10.53267        -0.462887     -0.299710     -0.964038
H      6.48899      2.69929     11.46936        -0.126429     -0.206157     -0.305200
H      4.96901      1.86018     11.42975        -0.086544     -0.127111     -0.019937
C      5.82343      1.38270      2.40436        -0.170652     -0.012989     -0.562310
C      5.82343      2.13330      9.58336        -0.170652      0.012989     -0.562310
N      1.57957      3.43239      5.43519         0.055378      0.064530     -0.033034
N      1.43500      3.14289      6.79579         0.250049      0.047573     -0.661898
N      2.72180      3.01446      4.82873        -0.722911      0.391298     -0.207022
N      4.70248      1.77305      1.74936        -0.432046      0.451513      0.692662
N      6.87200      0.99899      1.68356         0.999075     -0.555452      3.665059
N      5.81237      1.37461      3.75036         0.307553     -0.292227     -0.222975
N      1.57957      0.08361     12.61419         0.055378     -0.064530     -0.033034
N      1.43500      0.37311     13.97479         0.250049     -0.047573     -0.661898
N      2.72180      0.50154     12.00773        -0.722911     -0.391298     -0.207022
N      4.70248      1.74295      8.92836        -0.432046     -0.451513      0.692662
N      6.87200      2.51701      8.86256         0.999075      0.555452      3.665059
N      5.81237      2.14139     10.92936         0.307553      0.292227     -0.222975
O      2.28104      2.60425      7.50492         0.248446     -0.277420      0.433691
O      0.31777     -0.00882      7.19724        -0.648302      0.210089      0.253087
O      3.66035      2.41913      5.37833         0.703495     -0.496338      0.215069
O      2.73202      3.29030      3.60231         0.034345      0.057045     -0.194300
O      4.84983      2.13001      0.41014        -0.793306     -0.808479     -0.711286
O      2.28104      0.91175      0.32592         0.248446      0.277420      0.433691
O      0.31777      0.00882      0.01824        -0.648302     -0.210089      0.253087
O      3.66035      1.09687     12.55733         0.703495      0.496338      0.215069
O      2.73202      0.22570     10.78131         0.034345     -0.057045     -0.194300
O      4.84983      1.38599      7.58914        -0.793306      0.808479     -0.711286
