36
# total energy = -216.64385663 eVH      4.03118      2.38157      2.27447         0.095580     -0.156011     -0.060836
H      4.22300      1.53469     -0.06512        -0.116671     -0.039643     -0.026001
H      6.90017      0.99304      0.70589        -0.041807     -0.125179      0.050202
H      0.69086      0.61391      3.33027        -0.053224      0.048027     -0.152071
H      6.48547      0.83104      4.26151         0.239014     -0.107478      0.097537
H      4.97139      1.66589      4.24611        -0.184105      0.142737      0.068422
H      4.03118      1.13443      9.45347         0.095580      0.156011     -0.060836
H      4.22300      1.98131      7.11388        -0.116671      0.039643     -0.026001
H      6.90017      2.52296      7.88489        -0.041807      0.125179      0.050202
H      0.69086      2.90209     10.50927        -0.053224     -0.048027     -0.152071
H      6.48547      2.68496     11.44051         0.239014      0.107478      0.097537
H      4.97139      1.85011     11.42511        -0.184105     -0.142737      0.068422
C      5.81935      1.37486      2.40060        -0.004905      0.070819      0.251373
C      5.81935      2.14114      9.57960        -0.004905     -0.070819      0.251373
N      1.58393      3.43919      5.43638         0.047254      0.033381     -0.022360
N      1.43239      3.14404      6.79008         0.044506     -0.034023      0.010889
N      2.72071      3.01523      4.82179        -0.069852      0.034377      0.020476
N      4.69664      1.78238      1.75989         0.076409      0.116451      0.081581
N      6.89294      0.98623      1.72658         0.007304     -0.071426     -0.035416
N      5.80050      1.36556      3.73921        -0.029225     -0.021686     -0.183200
N      1.58393      0.07681     12.61538         0.047254     -0.033381     -0.022360
N      1.43239      0.37196     13.96908         0.044506      0.034023      0.010889
N      2.72071      0.50077     12.00079        -0.069852     -0.034377      0.020476
N      4.69664      1.73362      8.93889         0.076409     -0.116451      0.081581
N      6.89294      2.52977      8.90558         0.007304      0.071426     -0.035416
N      5.80050      2.15044     10.91821        -0.029225      0.021686     -0.183200
O      2.27408      2.59735      7.51449        -0.075328     -0.022674     -0.015280
O      0.30468     -0.00454      7.19829        -0.008201      0.016053     -0.069039
O      3.66984      2.40555      5.36677        -0.015864     -0.073543     -0.039253
O      2.73002      3.29624      3.59414        -0.039215      0.040230     -0.020322
O      4.84989      2.12477      0.41725         0.128331      0.128273      0.043297
O      2.27408      0.91865      0.33549        -0.075328      0.022674     -0.015280
O      0.30468      0.00454      0.01929        -0.008201     -0.016053     -0.069039
O      3.66984      1.11045     12.54577        -0.015864      0.073543     -0.039253
O      2.73002      0.21976     10.77314        -0.039215     -0.040230     -0.020322
O      4.84989      1.39123      7.59625         0.128331     -0.128273      0.043297
