16
# total energy = -103.16555983 eVC      2.48052      1.09131      1.92140        -0.231972     -0.152412      0.845775
C      2.85547      5.62131      1.12771         0.231972     -0.152412     -0.845775
C      1.07680      7.96869      4.77801         0.231972      0.152412     -0.845775
C      0.70186      3.43869      5.57169        -0.231972      0.152412      0.845775
N      0.06568      0.62764      0.11087        -1.897028     -1.562586     -0.247158
N     -0.36133      1.76893      0.65309         0.584125     -1.169077      1.407860
N      1.71298      5.15764      3.23883         1.897028     -1.562586      0.247158
N      2.13999      6.29893      2.69662        -0.584125     -1.169077     -1.407860
N     -0.06568      8.43236     -0.11087         1.897028      1.562586      0.247158
N      0.36133      7.29107      6.34691        -0.584125      1.169077     -1.407860
N      1.84435      3.90236      3.46057        -1.897028      1.562586     -0.247158
N      1.41733      2.76107      4.00279         0.584125      1.169077      1.407860
O      2.78967      1.98811      1.53026        -0.036892      1.600196     -1.004932
O      2.54632      6.51811      1.51886         0.036892      1.600196      1.004932
O      0.76765      7.07189      5.16915         0.036892     -1.600196      1.004932
O      1.01101      2.54189      5.18055        -0.036892     -1.600196     -1.004932
