12
# total energy = -76.24199779 eVC      2.34814      1.30750      0.86634         1.530177     -0.000000      0.634947
C      3.06186      3.92250      2.65134        -1.530177      0.000000      0.634947
C      8.47186      3.92250      2.70366        -1.530177     -0.000000     -0.634947
C      7.75814      1.30750      0.91866         1.530177     -0.000000     -0.634947
N     -1.12876      1.30750     -0.19020        -0.087485      0.000000      0.305970
N      6.53876      3.92250      1.59480         0.087485      0.000000      0.305970
N      1.12876      3.92250      0.19020         0.087485     -0.000000     -0.305970
N      4.28124      1.30750      1.97520        -0.087485     -0.000000     -0.305970
O      3.29609      1.30750      1.32673        -1.489631      0.000000     -0.325489
O      2.11391      3.92250      3.11173         1.489631     -0.000000     -0.325489
O      7.52391      3.92250      2.24327         1.489631      0.000000      0.325489
O      8.70609      1.30750      0.45827        -1.489631      0.000000      0.325489
