44
# total energy = -279.26964524 eVH      8.40531      8.40794      2.01591        -1.302872      1.333268     -2.442520
H      8.47731      9.01706      0.15114        -1.701977     -0.235265      2.404160
H      2.53325      5.66026      3.96772        -0.891246     -1.017451      0.344768
H      1.12106      4.39605      3.50313         2.516374      1.433698      2.406239
H      0.65794      1.52123      0.47424         1.302872     -1.333268      2.442520
H      0.58595      0.91211      2.33902         1.701977      0.235265     -2.404160
H      6.53000      4.26891     -1.47757         0.891246      1.017451     -0.344768
H      7.94219      5.53312     -1.01297        -2.516374     -1.433698     -2.406239
C      6.67474      1.59290      2.40651         4.757918     -2.236436     -0.386713
C      2.03061      4.18267      5.56678         0.795751      5.736752     -8.489404
C      2.38851      8.33627      0.08364        -4.757918      2.236436      0.386713
C      7.03265      5.74650     -3.07662        -0.795751     -5.736752      8.489404
N      5.98542      2.21268      1.48981        -1.713032      1.158011     -1.128767
N      7.90529      8.85768      1.09260         1.384346     -0.375212      0.479714
N      6.47109      2.38890      0.27234         1.080553      0.177363     -1.597949
N      6.25326      1.42430      3.66118        -3.745938      1.124753      2.085335
N      4.99788      1.95826      3.83346        48.435996    -18.600233    -13.273567
N      4.14544      2.28744      4.06686       -45.907967     17.658441     12.761303
N      1.32182      3.24895      6.00239        -1.965965     -3.085120      1.987865
N      1.88178      4.85631      4.22453        -1.411412     -2.601170      1.237801
N      0.33769      2.70727      5.29297        -1.655425     -1.184617     -0.754017
N      3.03857      4.82660     -0.97607         1.153616     -0.823021      4.115918
N      3.09422      4.36568      0.31767        -5.661896     13.467500    -48.560142
N      3.20720      4.11882      1.22538         5.914225    -12.657623     46.694038
N      3.07784      7.71649      1.00034         1.713032     -1.158011      1.128767
N      1.15796      1.07149      1.39756        -1.384346      0.375212     -0.479714
N      2.59217      7.54027      2.21781        -1.080553     -0.177363      1.597949
N      2.80999      0.64497     -0.02300         3.745938     -1.124753     -2.085335
N      4.06537      7.97091     -1.34331       -48.435996     18.600233     13.273567
N      4.91782      7.64173     -1.57671        45.907967    -17.658441    -12.761303
N      7.74144      6.68022     -3.51224         1.965965      3.085120     -1.987865
N      7.18147      5.07286     -1.73438         1.411412      2.601170     -1.237801
N      8.72557      7.22190     -2.80282         1.655425      1.184617      0.754017
N      6.02468      5.10257      3.46622        -1.153616      0.823021     -4.115918
N      5.96904      5.56349      2.17249         5.661896    -13.467500     48.560142
N      5.85605      5.81035      1.26477        -5.914225     12.657623    -46.694038
O      5.66749      2.99536     -0.54170         0.641319     -0.657263      0.734423
O      7.64748      2.01570     -0.12230        -1.903226      0.603014      0.471127
O      8.71168      3.89400      2.44707         0.927301      1.278851     -0.973487
O      0.05369      3.00198      4.05869         0.506938     -0.526936      2.111212
O      3.39576      6.93381      3.03185        -0.641319      0.657263     -0.734423
O      1.41578      7.91347      2.61245         1.903226     -0.603014     -0.471127
O      0.35158      6.03517      0.04308        -0.927301     -1.278851      0.973487
O      9.00957      6.92719     -1.56854        -0.506938      0.526936     -2.111212
