12
# total energy = -74.51633416 eVC      2.44117      1.30750      0.96569        -6.796811     -0.000000     -2.268058
C      2.96883      3.92250      2.75069         6.796811      0.000000     -2.268058
C      8.37883      3.92250      2.60431         6.796811     -0.000000      2.268058
C      7.85117      1.30750      0.81931        -6.796811      0.000000      2.268058
N     -1.22865      1.30750     -0.22076        -0.246747      0.000000      0.944544
N      6.63865      3.92250      1.56424         0.246747     -0.000000      0.944544
N      1.22865      3.92250      0.22076         0.246747      0.000000     -0.944544
N      4.18135      1.30750      2.00576        -0.246747      0.000000     -0.944544
O      3.31394      1.30750      1.19570         7.017578      0.000000      3.215554
O      2.09606      3.92250      2.98070        -7.017578     -0.000000      3.215554
O      7.50606      3.92250      2.37430        -7.017578      0.000000     -3.215554
O      8.72394      1.30750      0.58930         7.017578      0.000000     -3.215554
