36
# total energy = -193.94112894 eVH      0.77096      2.37774      2.51348        -0.644353      0.376269     -0.551614
H      0.46952      3.63187      1.27769        -0.718054     -1.541192      1.625349
H      4.63623      7.63074      1.13864        -0.644353      0.376269     -0.551614
H      4.33479      8.88487     -0.09715        -0.718054     -1.541192      1.625349
H      6.95958      2.37774     -1.11716         0.644353      0.376269      0.551614
H      7.26102      3.63187      0.11862         0.718054     -1.541192     -1.625349
H      3.09431      7.63074      0.25768         0.644353      0.376269      0.551614
H      3.39575      8.88487      1.49347         0.718054     -1.541192     -1.625349
H      6.95958      8.12826     -1.11716         0.644353     -0.376269      0.551614
H      7.26102      6.87413      0.11862         0.718054      1.541192     -1.625349
H      3.09431      2.87526      0.25768         0.644353     -0.376269      0.551614
H      3.39575      1.62113      1.49347         0.718054      1.541192     -1.625349
H      0.77096      8.12826      2.51348        -0.644353     -0.376269     -0.551614
H      0.46952      6.87413      1.27769        -0.718054      1.541192      1.625349
H      4.63623      2.87526      1.13864        -0.644353     -0.376269     -0.551614
H      4.33479      1.62113     -0.09715        -0.718054      1.541192      1.625349
C      2.13095      5.25300     -0.17580         2.932981      0.000000     -2.032459
C      3.50199      5.25300     -1.13377       -84.932918      0.000000     56.611177
C      5.99622      0.00000     -1.55064         2.932981      0.000000     -2.032459
C      7.36726      0.00000     -2.50861       -84.932918      0.000000     56.611177
C      5.59959      5.25300      1.57212        -2.932981      0.000000      2.032459
C      4.22855      5.25300      2.53009        84.932918      0.000000    -56.611177
C      1.73432      0.00000      2.94696        -2.932981      0.000000      2.032459
C      0.36328      0.00000      3.90493        84.932918      0.000000    -56.611177
N     -0.00000      2.96416      2.07300        -0.000000      2.326303     -0.000000
N      3.86527      8.21716      0.69816        -0.000000      2.326303     -0.000000
N     -0.00000      7.54184      2.07300        -0.000000     -2.326303     -0.000000
N      3.86527      2.28884      0.69816        -0.000000     -2.326303     -0.000000
O      1.70250      6.39048      0.12987        -0.217551      0.158284      0.124017
O      5.56777      1.13748     -1.24497        -0.217551      0.158284      0.124017
O      6.02804      6.39048      1.26645         0.217551      0.158284     -0.124017
O      2.16277      1.13748      2.64129         0.217551      0.158284     -0.124017
O      6.02804      4.11552      1.26645         0.217551     -0.158284     -0.124017
O      2.16277      9.36852      2.64129         0.217551     -0.158284     -0.124017
O      1.70250      4.11552      0.12987        -0.217551     -0.158284      0.124017
O      5.56777      9.36852     -1.24497        -0.217551     -0.158284      0.124017
