16
# total energy = -97.33550436 eVH      1.45369      4.28469      1.40110        -0.014376     -0.014376     -0.039914
H      0.79540      3.62640     -0.09577         0.020850      0.020850     -0.002308
H      4.20831      1.37731      1.40110         0.014376      0.014376     -0.039914
H      4.86660      2.03560     -0.09577        -0.020850     -0.020850     -0.002308
H      4.28469      4.20831      3.31490        -0.014376      0.014376      0.039914
H      3.62640      4.86660      0.09577         0.020850     -0.020850      0.002308
H      1.37731      1.45369      3.31490         0.014376     -0.014376      0.039914
H      2.03560      0.79540      0.09577        -0.020850      0.020850      0.002308
C     -0.00000      2.83100      1.63147         0.000000      0.000000     -0.111753
C      2.83100      0.00000      3.08453         0.000000      0.000000      0.111753
N      0.81535      3.64635      0.92351        -0.045749     -0.045749     -0.026334
N      4.84665      2.01565      0.92351         0.045749      0.045749     -0.026334
N      3.64635      4.84665      3.79249        -0.045749      0.045749      0.026334
N      2.01565      0.81535      3.79249         0.045749     -0.045749      0.026334
O     -0.00000      2.83100      2.90505         0.000000      0.000000      0.048220
O      2.83100      0.00000      1.81095         0.000000      0.000000     -0.048220
