40
# total energy = -65.51772708 eVH      5.31535      0.51574      3.92862         0.064479     -0.385225      0.016214
H      4.99211      0.83286      1.63077        -0.103689      0.416743      0.347661
H      7.18115      3.07181      3.92862        -0.064479      0.385225      0.016214
H      7.50439      2.75469      1.63077         0.103689     -0.416743      0.347661
H      3.01565      4.10329      1.53358        -0.064479     -0.385225     -0.016214
H      3.33889      4.42041      3.83143         0.103689      0.416743     -0.347661
H      1.14985      6.65936      1.53358         0.064479      0.385225     -0.016214
H      0.82661      6.34224      3.83143        -0.103689     -0.416743     -0.347661
H      3.01565      6.65936      1.53358        -0.064479      0.385225     -0.016214
H      3.33889      6.34224      3.83143         0.103689     -0.416743     -0.347661
H      1.14985      4.10329      1.53358         0.064479     -0.385225     -0.016214
H      0.82661      4.42041      3.83143        -0.103689      0.416743     -0.347661
H      5.31535      3.07181      3.92862         0.064479      0.385225      0.016214
H      4.99211      2.75469      1.63077        -0.103689     -0.416743      0.347661
H      7.18115      0.51574      3.92862        -0.064479     -0.385225      0.016214
H      7.50439      0.83286      1.63077         0.103689      0.416743      0.347661
H      6.24825      6.72184      5.27320         0.000000      0.276216     -0.303320
H      6.24825      4.04081      5.27320         0.000000     -0.276216     -0.303320
H      2.08275      3.13429      0.18900         0.000000      0.276216      0.303320
H      2.08275      0.45326      0.18900         0.000000     -0.276216      0.303320
H      4.05419      1.79377      0.37900         0.763757      0.000000      0.901603
H      0.11131      1.79377      0.37900        -0.763757      0.000000      0.901603
H      4.27681      5.38132      5.08320        -0.763757     -0.000000     -0.901603
H     -0.11131      5.38132      5.08320         0.763757     -0.000000     -0.901603
C      6.24825      0.23084      4.41362         0.000000     -0.844028      0.377398
C      6.24825      3.35671      4.41362         0.000000      0.844028      0.377398
C      2.08275      3.81839      1.04858         0.000000     -0.844028     -0.377398
C      2.08275      6.94426      1.04858         0.000000      0.844028     -0.377398
C      4.93426      1.79377      1.09287        -1.190682     -0.000000     -1.330012
C      7.56224      1.79377      1.09287         1.190682      0.000000     -1.330012
C      3.39674      5.38132      4.36933         1.190682      0.000000      1.330012
C      0.76876      5.38132      4.36933        -1.190682      0.000000      1.330012
N      6.24825      1.79377      0.06481         0.000000      0.000000      0.122199
N      2.08275      5.38132      5.39739        -0.000000      0.000000     -0.122199
N      2.08275      1.79377      1.85809         0.000000     -0.000000     -0.494060
N      6.24825      5.38132      3.60411         0.000000      0.000000      0.494060
O      3.57796      1.79377      3.79280        -0.051165     -0.000000      0.284414
O      0.58754      1.79377      3.79280         0.051165     -0.000000      0.284414
O      4.75304      5.38132      1.66940         0.051165      0.000000     -0.284414
O      7.74346      5.38132      1.66940        -0.051165      0.000000     -0.284414
