16
# total energy = -96.28555829 eVC      2.49782      0.73302      1.87797         0.673691      3.158168     -1.259218
C      2.83816      5.26302      1.17114        -0.673691      3.158168      1.259218
C      1.05950      8.32698      4.82144        -0.673691     -3.158168      1.259218
C      0.71916      3.79698      5.52826         0.673691     -3.158168     -1.259218
N     -0.06483      0.66091      0.00853         2.378555    -10.362858     -3.236155
N     -0.14202      1.82750      0.52087        -0.558164      2.362690      0.857821
N      1.84349      5.19091      3.34117        -2.378555    -10.362858      3.236155
N      1.92068      6.35750      2.82883         0.558164      2.362690     -0.857821
N      0.06483      8.39909     -0.00853        -2.378555     10.362858      3.236155
N      0.14202      7.23250      6.47913         0.558164     -2.362690     -0.857821
N      1.71383      3.86909      3.35823         2.378555     10.362858     -3.236155
N      1.63664      2.70250      3.87058        -0.558164     -2.362690      0.857821
O      2.82719      1.91384      1.27944        -2.019084     -0.120101      4.673138
O      2.50879      6.44384      1.76967         2.019084     -0.120101     -4.673138
O      0.73013      7.14616      5.41997         2.019084      0.120101     -4.673138
O      1.04853      2.61616      4.92974        -2.019084      0.120101      4.673138
