48
# total energy = -196.25964830 eVC      5.07168      3.22651      7.97630       -11.792198     -0.031943     -4.739293
C      4.53641      2.07321      5.89869        -0.432233     -1.079421     -1.852210
C      6.32272      1.44713      5.58078         1.510054     -0.794832     -0.774455
C      7.31661      1.88077      6.60564        -5.494727      1.775267     -0.120148
C      5.05743      0.70147      3.80330         0.802554     -1.758661     -2.699868
C      1.48806      6.92851      1.27663        11.792198     -0.031943      4.739293
C      2.02333      5.77521      3.35424         0.432233     -1.079421      1.852210
C      0.23702      5.14913      3.67216        -1.510054     -0.794832      0.774455
C     12.36262      5.58277      8.73715         5.494727      1.775267      0.120148
C      1.50231      4.40347      5.44963        -0.802554     -1.758661      2.699868
C      8.04780      4.17749      4.32156        11.792198      0.031943      4.739293
C      8.58307      5.33079      6.39917         0.432233      1.079421      1.852210
C      6.79676      5.95687      6.71709        -1.510054      0.794832      0.774455
C      5.80287      5.52323      5.69222         5.494727     -1.775267      0.120148
C      8.06205      6.70253      8.49456        -0.802554      1.758661      2.699868
C     11.63143      0.47549     11.02123       -11.792198      0.031943     -4.739293
C     11.09615      1.62879      8.94362        -0.432233      1.079421     -1.852210
C     12.88246      2.25487      8.62571         1.510054      0.794832     -0.774455
C      0.75687      1.82123      3.56071        -5.494727     -1.775267     -0.120148
C     11.61718      3.00053      6.84823         0.802554      1.758661     -2.699868
N      6.01522      2.95101      7.95324         4.250516      0.944898      2.902674
N      4.53039      2.63734      6.78635        -0.390085      1.738393      2.769387
N      5.71832      1.10885      4.74759         7.493292     -0.253890      2.663693
N      4.55078      1.38277      4.76244        -7.936484      1.519887     -0.422837
N      0.54452      6.65301      1.29969        -4.250516      0.944898     -2.902674
N      2.02936      6.33934      2.46658         0.390085      1.738393     -2.769387
N      0.84142      4.81085      4.50534        -7.493292     -0.253890     -2.663693
N      2.00896      5.08477      4.49049         7.936484      1.519887      0.422837
N      7.10426      4.45299      4.34462        -4.250516     -0.944898     -2.902674
N      8.58910      4.76666      5.51151         0.390085     -1.738393     -2.769387
N      7.40117      6.29515      7.55027        -7.493292      0.253890     -2.663693
N      8.56870      6.02123      7.53542         7.936484     -1.519887      0.422837
N     12.57497      0.75099     10.99817         4.250516     -0.944898      2.902674
N     11.09013      1.06466      9.83128        -0.390085     -1.738393      2.769387
N     12.27806      2.59315      7.79252         7.493292      0.253890      2.663693
N     11.11052      2.31923      7.80737        -7.936484     -1.519887     -0.422837
O      5.16775      3.73608      2.58760         6.352458      0.341577      2.922397
O      8.21298      1.62755      6.66874         5.969941     -1.483330      0.358567
O      4.58337      0.20168      2.82847        -1.330514     -0.628975     -1.415513
O      1.39199      0.03408      6.66533        -6.352458      0.341577     -2.922397
O     11.46625      5.32955      8.67405        -5.969941     -1.483330     -0.358567
O      1.97637      3.90368      6.42446         1.330514     -0.628975      1.415513
O      7.95173      3.66792      9.71026        -6.352458     -0.341577     -2.922397
O      4.90651      5.77645      5.62912        -5.969941      1.483330     -0.358567
O      8.53611      7.20232      9.46939         1.330514      0.628975      1.415513
O     11.72750      7.36992      5.63253         6.352458     -0.341577      2.922397
O      1.65324      2.07445      3.62381         5.969941      1.483330      0.358567
O     11.14312      3.50032      5.87341        -1.330514      0.628975     -1.415513
