16
# total energy = -110.00248596 eVC      2.29604      1.84810      2.50352        -0.068144      0.610153      0.063737
C      3.03995      6.37810      0.54559         0.068144      0.610153     -0.063737
C      1.26128      7.21190      4.19589         0.068144     -0.610153     -0.063737
C      0.51738      2.68190      6.15381        -0.068144     -0.610153      0.063737
N     -0.24353      0.40263      0.42981         0.482329      0.088739     -0.134924
N     -0.52063      1.40027      1.16718        -0.235589     -0.124111     -0.193905
N      2.02219      4.93263      2.91989        -0.482329      0.088739      0.134924
N      2.29929      5.93027      2.18252         0.235589     -0.124111      0.193905
N      0.24353      8.65737     -0.42981        -0.482329     -0.088739      0.134924
N      0.52063      7.65973      5.83282         0.235589      0.124111      0.193905
N      1.53513      4.12737      3.77952         0.482329     -0.088739     -0.134924
N      1.25803      3.12973      4.51689        -0.235589      0.124111     -0.193905
O      2.68332      2.29188      1.64451        -0.157968     -0.035100      0.709857
O      2.65266      6.82188      1.40460         0.157968     -0.035100     -0.709857
O      0.87400      6.76812      5.05490         0.157968      0.035100     -0.709857
O      0.90466      2.23812      5.29481        -0.157968      0.035100      0.709857
