40
# total energy = -61.19965488 eVH      5.35185      0.63296      3.95894         0.204701     -0.555129      0.133544
H      5.06343      0.88318      1.51810        -0.387174      0.008723      0.185294
H      7.14465      2.95459      3.95894        -0.204701      0.555129      0.133544
H      7.43307      2.70437      1.51810         0.387174     -0.008723      0.185294
H      2.97915      4.22051      1.50326        -0.204701     -0.555129     -0.133544
H      3.26757      4.47073      3.94410         0.387174      0.008723     -0.185294
H      1.18635      6.54214      1.50326         0.204701      0.555129     -0.133544
H      0.89793      6.29192      3.94410        -0.387174     -0.008723     -0.185294
H      2.97915      6.54214      1.50326        -0.204701      0.555129     -0.133544
H      3.26757      6.29192      3.94410         0.387174     -0.008723     -0.185294
H      1.18635      4.22051      1.50326         0.204701     -0.555129     -0.133544
H      0.89793      4.47073      3.94410        -0.387174      0.008723     -0.185294
H      5.35185      2.95459      3.95894         0.204701      0.555129      0.133544
H      5.06343      2.70437      1.51810        -0.387174     -0.008723      0.185294
H      7.14465      0.63296      3.95894        -0.204701     -0.555129      0.133544
H      7.43307      0.88318      1.51810         0.387174      0.008723      0.185294
H      6.24825      6.86841      5.25926        -0.000000     -0.637408      0.071723
H      6.24825      3.89424      5.25926        -0.000000      0.637408      0.071723
H      2.08275      3.28086      0.20294        -0.000000     -0.637408     -0.071723
H      2.08275      0.30669      0.20294        -0.000000      0.637408     -0.071723
H      4.16283      1.79377      0.22309        -1.102588      0.000000      0.149570
H      0.00267      1.79377      0.22309         1.102588      0.000000      0.149570
H      4.16817      5.38132      5.23911         1.102588     -0.000000     -0.149570
H     -0.00267      5.38132      5.23911        -1.102588      0.000000     -0.149570
C      6.24825      0.51856      4.56741        -0.000000     -1.691722     -1.602536
C      6.24825      3.06899      4.56741        -0.000000      1.691722     -1.602536
C      2.08275      4.10611      0.89479        -0.000000     -1.691722      1.602536
C      2.08275      6.65654      0.89479        -0.000000      1.691722      1.602536
C      4.96242      1.79377      0.91555         0.460339     -0.000000      2.759375
C      7.53408      1.79377      0.91555        -0.460339     -0.000000      2.759375
C      3.36858      5.38132      4.54665        -0.460339      0.000000     -2.759375
C      0.79692      5.38132      4.54665         0.460339     -0.000000     -2.759375
N      6.24825      1.79377      0.03422        -0.000000     -0.000000     -0.054728
N      2.08275      5.38132      5.42798        -0.000000     -0.000000      0.054728
N      2.08275      1.79377      2.22040        -0.000000      0.000000     -1.220774
N      6.24825      5.38132      3.24180        -0.000000      0.000000      1.220774
O      3.79810      1.79377      3.93464        -1.535725      0.000000     -1.127511
O      0.36740      1.79377      3.93464         1.535725      0.000000     -1.127511
O      4.53290      5.38132      1.52756         1.535725     -0.000000      1.127511
O      7.96360      5.38132      1.52756        -1.535725      0.000000      1.127511
