56
# total energy = -353.18787080 eVH      5.16984      2.29799      4.06150        -0.056954      0.007759      0.012554
H      6.56176      1.98071      5.09513         0.039325     -0.020094     -0.019777
H      3.07441      1.99773      4.86189        -0.002353      0.010139     -0.033551
H      2.78178      1.28367      6.43449         0.035478     -0.012760      0.002612
H      5.21150      5.57374      1.56467         0.056954      0.007759     -0.012554
H      3.81958      5.25646      0.53105        -0.039325     -0.020094      0.019777
H      0.38604      5.27348      0.77154         0.002353      0.010139      0.033551
H      0.67867      4.55942     10.47304        -0.035478     -0.012760     -0.002612
H      1.75105      4.25351      7.20535         0.056954     -0.007759     -0.012554
H      0.35914      4.57079      6.17172        -0.039325      0.020094      0.019777
H      3.84649      4.55377      6.40496         0.002353     -0.010139      0.033551
H      4.13912      5.26783      4.83236        -0.035478      0.012760     -0.002612
H      1.70939      0.97776      9.70218        -0.056954     -0.007759      0.012554
H      3.10131      1.29504     10.73580         0.039325      0.020094     -0.019777
H      6.53486      1.27802     10.49531        -0.002353     -0.010139     -0.033551
H      6.24223      1.99208      0.79382         0.035478      0.012760      0.002612
C      5.31521      1.10523      7.19805         0.042582     -0.002653      0.011654
C      4.75576      1.57111      5.93086         0.010383      0.012910     -0.031433
C      5.06614      4.38098      9.70222        -0.042582     -0.002653     -0.011654
C      5.62559      4.84686     10.96942        -0.010383      0.012910      0.031433
C      1.60569      5.44627      4.06880        -0.042582      0.002653     -0.011654
C      2.16514      4.98039      5.33600        -0.010383     -0.012910      0.031433
C      1.85476      2.17052      1.56463         0.042582      0.002653      0.011654
C      1.29531      1.70464      0.29743         0.010383     -0.012910     -0.031433
N      6.69370      0.94803      7.42890        -0.055538      0.013382     -0.004442
N      4.45077      0.83152      8.28542         0.006014      0.022983     -0.028443
N      5.55372      1.96870      4.94965        -0.006309     -0.003926     -0.007841
N      3.43879      1.66216      5.75421        -0.005050     -0.023640      0.044163
N      3.68764      4.22378      9.47138         0.055538      0.013382      0.004442
N      5.93057      4.10727      8.61486        -0.006014      0.022983      0.028443
N      4.82762      5.24445      0.67653         0.006309     -0.003926      0.007841
N      0.02165      4.93791     11.15331         0.005050     -0.023640     -0.044163
N      0.22719      5.60347      3.83795         0.055538     -0.013382      0.004442
N      2.47012      5.71998      2.98144        -0.006014     -0.022983      0.028443
N      1.36718      4.58280      6.31720         0.006309      0.003926      0.007841
N      3.48210      4.88934      5.51264         0.005050      0.023640     -0.044163
N      3.23326      2.32772      1.79547        -0.055538     -0.013382     -0.004442
N      0.99033      2.44423      2.65199         0.006014     -0.022983     -0.028443
N      2.09327      1.30705     10.59032        -0.006309      0.003926     -0.007841
N     -0.02165      1.61359      0.12079        -0.005050      0.023640      0.044163
O      0.17537      0.38063      8.48407         0.004935      0.042449     -0.036111
O      0.58563      1.32435      6.54541        -0.019081     -0.014371      0.049891
O      3.30418      0.38071      8.03935         0.008654      0.030400      0.003746
O      4.81470      1.07191      9.46156         0.003664     -0.029120     -0.029385
O      3.28508      3.65638      8.42345        -0.004935      0.042449      0.036111
O      2.87482      4.60010     10.36212         0.019081     -0.014371     -0.049891
O      0.15627      3.65646      8.86817        -0.008654      0.030400     -0.003746
O      5.56664      4.34766      7.43872        -0.003664     -0.029120      0.029385
O      6.74553      6.17087      2.78278        -0.004935     -0.042449      0.036111
O      6.33527      5.22715      4.72144         0.019081      0.014371     -0.049891
O      3.61672      6.17079      3.22750        -0.008654     -0.030400     -0.003746
O      2.10619      5.47959      1.80529        -0.003664      0.029120      0.029385
O      3.63581      2.89512      2.84340         0.004935     -0.042449     -0.036111
O      4.04608      1.95140      0.90474        -0.019081      0.014371      0.049891
O      6.76463      2.89504      2.39868         0.008654     -0.030400      0.003746
O      1.35426      2.20384      3.82813         0.003664      0.029120     -0.029385
