30
# total energy = -134.62668172 eVH      0.75613      2.49438      4.79122         0.331447      0.446667      0.097919
H      0.72006      2.48092      1.98473         0.189186      0.188369      0.307218
H      0.18284     -0.12173      0.51345        -0.714997      0.082334      0.943902
H      2.73687      9.15578     -0.47550        -0.331447      0.446667     -0.097919
H      2.77294      9.14232      2.33099        -0.189186      0.188369     -0.307218
H     -0.18284      6.53967     -0.51345         0.714997      0.082334     -0.943902
H      2.73687     10.82842     -0.47550        -0.331447     -0.446667     -0.097919
H      2.77294     10.84188      2.33099        -0.189186     -0.188369     -0.307218
H     -0.18284      0.12173     -0.51345         0.714997     -0.082334     -0.943902
H      0.75613      4.16702      4.79122         0.331447     -0.446667      0.097919
H      0.72006      4.18048      1.98473         0.189186     -0.188369      0.307218
H      0.18284      6.78313      0.51345        -0.714997     -0.082334      0.943902
H      2.82860      3.33070      0.55188         0.465323      0.000000      0.052729
H      0.66440      9.99210      3.76384        -0.465323      0.000000     -0.052729
C      2.08135      0.29841      2.62285         1.408590     -0.219349      1.634796
C      1.41165      6.95981      1.69287        -1.408590     -0.219349     -1.634796
C      1.41165     13.02439      1.69287        -1.408590      0.219349     -1.634796
C      2.08135      6.36299      2.62285         1.408590      0.219349      1.634796
N      1.11512      3.33070      0.19942        -0.571106      0.000000     -0.409529
N      0.41955      3.33070      1.47638        -0.895039      0.000000     -0.289301
N      2.37788      9.99210      4.11630         0.571106      0.000000      0.409529
N      3.07345      9.99210      2.83934         0.895039      0.000000      0.289301
O      2.10036      1.63660      3.00536         0.371959     -0.694553      0.256702
O      2.95305     12.65971      3.29843        -0.214414      2.054693      0.206466
O      1.39264      8.29800      1.31036        -0.371959     -0.694553     -0.256702
O      0.53995      5.99831      1.01729         0.214414      2.054693     -0.206466
O      1.39264     11.68620      1.31036        -0.371959      0.694553     -0.256702
O      0.53995      0.66309      1.01729         0.214414     -2.054693     -0.206466
O      2.10036      5.02480      3.00536         0.371959      0.694553      0.256702
O      2.95305      7.32449      3.29843        -0.214414     -2.054693      0.206466
