16
# total energy = -97.33400762 eVH      1.45409      4.28509      1.39956        -0.009373     -0.009373      0.003638
H      0.79702      3.62802     -0.08991        -0.010813     -0.010813     -0.093399
H      4.20791      1.37691      1.39956         0.009373      0.009373      0.003638
H      4.86498      2.03398     -0.08991         0.010813      0.010813     -0.093399
H      4.28509      4.20791      3.31644        -0.009373      0.009373     -0.003638
H      3.62802      4.86498      0.08991        -0.010813      0.010813      0.093399
H      1.37691      1.45409      3.31644         0.009373     -0.009373     -0.003638
H      2.03398      0.79702      0.08991         0.010813     -0.010813      0.093399
C     -0.00000      2.83100      1.63619        -0.000000      0.000000     -0.051103
C      2.83100      0.00000      3.07981        -0.000000      0.000000      0.051103
N      0.81415      3.64515      0.92730         0.012269      0.012269      0.030408
N      4.84785      2.01685      0.92730        -0.012269     -0.012269      0.030408
N      3.64515      4.84785      3.78870         0.012269     -0.012269     -0.030408
N      2.01685      0.81415      3.78870        -0.012269      0.012269     -0.030408
O     -0.00000      2.83100      2.91094        -0.000000      0.000000     -0.032031
O      2.83100      0.00000      1.80506        -0.000000      0.000000      0.032031
