16
# total energy = -102.62124361 eVC      2.51852      0.98436      1.84130        -0.260891     -0.049608      0.640377
C      2.81746      5.51436      1.20781         0.260891     -0.049608     -0.640377
C      1.03880      8.07564      4.85811         0.260891      0.049608     -0.640377
C      0.73986      3.54564      5.49159        -0.260891      0.049608      0.640377
N      0.02191      0.61370     -0.01203        -0.323660      1.404438      0.451901
N     -0.26108      1.82015      0.62030        -0.105011     -0.126433      0.365280
N      1.75675      5.14370      3.36174         0.323660      1.404438     -0.451901
N      2.03975      6.35015      2.72941         0.105011     -0.126433     -0.365280
N     -0.02191      8.44630      0.01203         0.323660     -1.404438     -0.451901
N      0.26108      7.23985      6.37970         0.105011      0.126433     -0.365280
N      1.80057      3.91630      3.33767        -0.323660     -1.404438      0.451901
N      1.51758      2.70985      3.97000        -0.105011      0.126433      0.365280
O      2.78466      1.89865      1.44899         0.105795      0.767694     -0.281211
O      2.55132      6.42865      1.60012        -0.105795      0.767694      0.281211
O      0.77266      7.16135      5.25041        -0.105795     -0.767694      0.281211
O      1.00600      2.63135      5.09929         0.105795     -0.767694     -0.281211
