38
# total energy = -218.43963813 eVH      3.53830      1.48660      2.10654        -0.179238      0.388219     -0.088510
H      3.84410      2.85782      1.08343         0.144717     -0.022115     -0.188084
H      2.76888      3.01558      2.38323         0.215647     -0.173055     -0.310867
H      2.33550      2.05982      1.00601         0.426136      0.118326      0.361172
H      3.19169     10.13971     -0.10887         0.372972     -0.030467     -0.019941
H      4.47870      8.82240      2.10654         0.179238     -0.388219     -0.088510
H      4.17290      7.45118      1.08343        -0.144717      0.022115     -0.188084
H      5.24812      7.29342      2.38323        -0.215647      0.173055     -0.310867
H      5.68150      8.24918      1.00601        -0.426136     -0.118326      0.361172
H      4.82531      0.16929     -0.10887        -0.372972      0.030467     -0.019941
H      0.47020      6.64110      1.62846         0.179238      0.388219      0.088510
H      0.16440      8.01232      2.65157        -0.144717     -0.022115      0.188084
H      1.23962      8.17008      1.35177        -0.215647     -0.173055      0.310867
H      1.67300      7.21432      2.72899        -0.426136      0.118326     -0.361172
H      0.81681      4.98521      0.10887        -0.372972     -0.030467      0.019941
H      7.54680      3.66790      1.62846        -0.179238     -0.388219      0.088510
H      7.85260      2.29668      2.65157         0.144717      0.022115      0.188084
H      6.77738      2.13892      1.35177         0.215647      0.173055      0.310867
H      6.34400      3.09468      2.72899         0.426136     -0.118326     -0.361172
H      7.20019      5.32379      0.10887         0.372972      0.030467      0.019941
C      0.75903      0.22556      0.26159        -1.145182      1.767272     -0.370923
C      7.25797     10.08344      0.26159         1.145182     -1.767272     -0.370923
C      3.24947      5.38006      3.47341         1.145182      1.767272      0.370923
C      4.76753      4.92894      3.47341        -1.145182     -1.767272      0.370923
N      3.13221      2.35142      1.65003        -0.591259     -0.495064      0.078268
N      4.88479      7.95758      1.65003         0.591259      0.495064      0.078268
N      0.87629      7.50592      2.08497         0.591259     -0.495064     -0.078268
N      7.14071      2.80308      2.08497        -0.591259      0.495064     -0.078268
O      1.63314      9.69762      0.53494         1.002912     -0.955103      0.198217
O      0.97111      1.46748     -0.00164        -0.051306     -0.600531      0.089126
O      6.38386      0.61138      0.53494        -1.002912      0.955103      0.198217
O      7.04589      8.84152     -0.00164         0.051306      0.600531      0.089126
O      2.37536      4.54312      3.20006        -1.002912     -0.955103     -0.198217
O      3.03739      6.62198      0.00164         0.051306     -0.600531     -0.089126
O      5.64164      5.76588      3.20006         1.002912      0.955103     -0.198217
O      4.97961      3.68702      0.00164        -0.051306      0.600531     -0.089126
O      4.00850      0.00000      3.06610         0.000000      0.000000     -0.051839
O     -0.00000      5.15450      0.66890         0.000000      0.000000      0.051839
