38
# total energy = -218.24476119 eVH      3.54748      1.47045      2.05949        -0.360008      0.713255      0.247142
H      3.88027      2.87081      1.11990        -0.581635     -0.306408     -0.332877
H      2.74885      3.04428      2.37946         0.462415     -0.612379     -0.417076
H      2.31879      2.03245      1.03339         0.586531      0.431765     -0.044422
H      3.23749     10.15684     -0.09394        -0.710564     -0.272404      0.173544
H      4.46952      8.83855      2.05949         0.360008     -0.713255      0.247142
H      4.13673      7.43819      1.11990         0.581635      0.306408     -0.332877
H      5.26815      7.26472      2.37946        -0.462415      0.612379     -0.417076
H      5.69821      8.27655      1.03339        -0.586531     -0.431765     -0.044422
H      4.77951      0.15216     -0.09394         0.710564      0.272404      0.173544
H      0.46102      6.62495      1.67551         0.360008      0.713255     -0.247142
H      0.12823      8.02531      2.61510         0.581635     -0.306408      0.332877
H      1.25965      8.19878      1.35554        -0.462415     -0.612379      0.417076
H      1.68971      7.18695      2.70161        -0.586531      0.431765      0.044422
H      0.77101      5.00234      0.09394         0.710564     -0.272404     -0.173544
H      7.55598      3.68405      1.67551        -0.360008     -0.713255     -0.247142
H      7.88877      2.28369      2.61510        -0.581635      0.306408      0.332877
H      6.75735      2.11022      1.35554         0.462415      0.612379      0.417076
H      6.32729      3.12205      2.70161         0.586531     -0.431765      0.044422
H      7.24599      5.30666      0.09394        -0.710564      0.272404     -0.173544
C      0.74329      0.24531      0.25600         0.622389     -0.863796      0.233682
C      7.27371     10.06369      0.25600        -0.622389      0.863796      0.233682
C      3.26521      5.39981      3.47900        -0.622389     -0.863796     -0.233682
C      4.75179      4.90919      3.47900         0.622389      0.863796     -0.233682
N      3.12383      2.35417      1.64407        -0.097514     -0.285695      0.456640
N      4.89317      7.95483      1.64407         0.097514      0.285695      0.456640
N      0.88467      7.50867      2.09093         0.097514     -0.285695     -0.456640
N      7.13233      2.80033      2.09093        -0.097514      0.285695     -0.456640
O      1.64202      9.68120      0.53478        -0.487702      0.525405     -0.123011
O      0.96652      1.45961      0.00287         0.032647      0.315792     -0.112295
O      6.37498      0.62780      0.53478         0.487702     -0.525405     -0.123011
O      7.05048      8.84939      0.00287        -0.032647     -0.315792     -0.112295
O      2.36648      4.52670      3.20022         0.487702      0.525405      0.123011
O      3.04198      6.61411     -0.00287        -0.032647      0.315792      0.112295
O      5.65052      5.78230      3.20022        -0.487702     -0.525405      0.123011
O      4.97502      3.69489     -0.00287         0.032647     -0.315792      0.112295
O      4.00850      0.00000      3.05401         0.000000      0.000000     -0.577478
O     -0.00000      5.15450      0.68099         0.000000      0.000000      0.577478
