56
# total energy = -353.19075793 eVH      5.16565      2.30135      4.06077        -0.039323      0.004925     -0.002862
H      6.56462      1.97626      5.08780        -0.026065     -0.003166     -0.026584
H      3.07273      1.99757      4.86361         0.010201      0.001993     -0.023117
H      2.78308      1.28110      6.43389         0.041336     -0.021431      0.033683
H      5.21569      5.57710      1.56541         0.039323      0.004925      0.002862
H      3.81673      5.25201      0.53838         0.026065     -0.003166      0.026584
H      0.38772      5.27332      0.76982        -0.010201      0.001993      0.023117
H      0.67737      4.55685     10.47364        -0.041336     -0.021431     -0.033683
H      1.75524      4.25015      7.20608         0.039323     -0.004925      0.002862
H      0.35628      4.57524      6.17906         0.026065      0.003166      0.026584
H      3.84816      4.55393      6.40324        -0.010201     -0.001993      0.023117
H      4.13782      5.27040      4.83296        -0.041336      0.021431     -0.033683
H      1.70520      0.97440      9.70144        -0.039323     -0.004925     -0.002862
H      3.10417      1.29949     10.72847        -0.026065      0.003166     -0.026584
H      6.53318      1.27818     10.49703         0.010201     -0.001993     -0.023117
H      6.24353      1.99465      0.79321         0.041336      0.021431      0.033683
C      5.31608      1.10683      7.19782        -0.011479      0.003598     -0.018910
C      4.75842      1.57182      5.92746        -0.062096     -0.021393      0.075394
C      5.06527      4.38258      9.70245         0.011479      0.003598      0.018910
C      5.62293      4.84757     10.97282         0.062096     -0.021393     -0.075394
C      1.60482      5.44467      4.06903         0.011479     -0.003598      0.018910
C      2.16248      4.97968      5.33940         0.062096      0.021393     -0.075394
C      1.85563      2.16892      1.56440        -0.011479     -0.003598     -0.018910
C      1.29797      1.70393      0.29403        -0.062096      0.021393      0.075394
N      6.69160      0.95012      7.43043         0.010157     -0.004199      0.001601
N      4.45176      0.83202      8.28483        -0.014553      0.031300     -0.017426
N      5.55429      1.97055      4.94627         0.051019     -0.010057      0.002051
N      3.44004      1.65982      5.75451         0.021999      0.018320     -0.034839
N      3.68974      4.22587      9.46985        -0.010157     -0.004199     -0.001601
N      5.92959      4.10777      8.61545         0.014553      0.031300      0.017426
N      4.82705      5.24630      0.67991        -0.051019     -0.010057     -0.002051
N      0.02040      4.93557     11.15301        -0.021999      0.018320      0.034839
N      0.22929      5.60138      3.83642        -0.010157      0.004199     -0.001601
N      2.46914      5.71948      2.98202         0.014553     -0.031300      0.017426
N      1.36661      4.58095      6.32058        -0.051019      0.010057     -0.002051
N      3.48085      4.89168      5.51234        -0.021999     -0.018320      0.034839
N      3.23115      2.32563      1.79700         0.010157      0.004199      0.001601
N      0.99131      2.44373      2.65140        -0.014553     -0.031300     -0.017426
N      2.09384      1.30520     10.58694         0.051019      0.010057      0.002051
N     -0.02040      1.61593      0.12109         0.021999     -0.018320     -0.034839
O      0.17482      0.38379      8.48529        -0.001189      0.023655     -0.000969
O      0.58367      1.32502      6.54761         0.016272      0.012302     -0.013100
O      3.30396      0.38511      8.03982        -0.013643      0.010292     -0.020854
O      4.81575      1.06772      9.46199         0.022230     -0.011568     -0.023496
O      3.28563      3.65954      8.42224         0.001189      0.023655      0.000969
O      2.87678      4.60077     10.35991        -0.016272      0.012302      0.013100
O      0.15648      3.66086      8.86771         0.013643      0.010292      0.020854
O      5.56559      4.34347      7.43828        -0.022230     -0.011568      0.023496
O      6.74608      6.16771      2.78156         0.001189     -0.023655      0.000969
O      6.33722      5.22648      4.71924        -0.016272     -0.012302      0.013100
O      3.61693      6.16639      3.22703         0.013643     -0.010292      0.020854
O      2.10514      5.48378      1.80486        -0.022230      0.011568      0.023496
O      3.63526      2.89196      2.84462        -0.001189     -0.023655     -0.000969
O      4.04412      1.95073      0.90694         0.016272     -0.012302     -0.013100
O      6.76441      2.89064      2.39914        -0.013643     -0.010292     -0.020854
O      1.35531      2.20803      3.82857         0.022230      0.011568     -0.023496
