40
# total energy = -49.08427817 eVH      5.32281      0.62823      3.93487         1.998781      0.145107      1.440559
H      5.04396      0.87384      1.53346         0.818188      1.032558     -1.047951
H      7.17369      2.95932      3.93487        -1.998781     -0.145107      1.440559
H      7.45254      2.71371      1.53346        -0.818188     -1.032558     -1.047951
H      3.00819      4.21578      1.52733        -1.998781      0.145107     -1.440559
H      3.28704      4.46139      3.92874        -0.818188      1.032558      1.047951
H      1.15731      6.54687      1.52733         1.998781     -0.145107     -1.440559
H      0.87846      6.30126      3.92874         0.818188     -1.032558      1.047951
H      3.00819      6.54687      1.52733        -1.998781     -0.145107     -1.440559
H      3.28704      6.30126      3.92874        -0.818188     -1.032558      1.047951
H      1.15731      4.21578      1.52733         1.998781      0.145107     -1.440559
H      0.87846      4.46139      3.92874         0.818188      1.032558      1.047951
H      5.32281      2.95932      3.93487         1.998781     -0.145107      1.440559
H      5.04396      2.71371      1.53346         0.818188     -1.032558     -1.047951
H      7.17369      0.62823      3.93487        -1.998781      0.145107      1.440559
H      7.45254      0.87384      1.53346        -0.818188      1.032558     -1.047951
H      6.24825      6.80738      5.29767         0.000000      3.022575     -1.857087
H      6.24825      3.95527      5.29767         0.000000     -3.022575     -1.857087
H      2.08275      3.21983      0.16453         0.000000      3.022575      1.857087
H      2.08275      0.36772      0.16453         0.000000     -3.022575      1.857087
H      4.09415      1.79377      0.16469         3.326207      0.000000      2.982351
H      0.07135      1.79377      0.16469        -3.326207     -0.000000      2.982351
H      4.23685      5.38132      5.29751        -3.326207      0.000000     -2.982351
H     -0.07135      5.38132      5.29751         3.326207      0.000000     -2.982351
C      6.24825      0.73732      4.62910         0.000000     -9.781476     -3.361023
C      6.24825      2.85023      4.62910         0.000000      9.781476     -3.361023
C      2.08275      4.32487      0.83310         0.000000     -9.781476      3.361023
C      2.08275      6.43778      0.83310         0.000000      9.781476      3.361023
C      5.18235      1.79377      0.85826        -9.790043      0.000000      3.228789
C      7.31415      1.79377      0.85826         9.790043      0.000000      3.228789
C      3.14865      5.38132      4.60394         9.790043      0.000000     -3.228789
C      1.01685      5.38132      4.60394        -9.790043      0.000000     -3.228789
N      6.24825      1.79377      0.02182         0.000000      0.000000      0.412213
N      2.08275      5.38132      5.44038         0.000000     -0.000000     -0.412213
N      2.08275      1.79377      2.43976         0.000000      0.000000     -3.218927
N      6.24825      5.38132      3.02244         0.000000      0.000000      3.218927
O      3.69832      1.79377      3.85777        -0.312049      0.000000     -0.075997
O      0.46718      1.79377      3.85777         0.312049      0.000000     -0.075997
O      4.63268      5.38132      1.60443         0.312049      0.000000      0.075997
O      7.86382      5.38132      1.60443        -0.312049      0.000000      0.075997
