36
# total energy = -220.87189109 eVH      0.73788      2.40184      2.49420         0.110784     -0.017004     -0.085081
H      0.44152      3.58946      1.32709         0.063998     -0.067350      0.148171
H      4.60315      7.65484      1.11936         0.110784     -0.017004     -0.085081
H      4.30679      8.84246     -0.04775         0.063998     -0.067350      0.148171
H      6.99266      2.40184     -1.09788        -0.110784     -0.017004      0.085081
H      7.28902      3.58946      0.06923        -0.063998     -0.067350     -0.148171
H      3.12739      7.65484      0.27696        -0.110784     -0.017004      0.085081
H      3.42375      8.84246      1.44407        -0.063998     -0.067350     -0.148171
H      6.99266      8.10416     -1.09788        -0.110784      0.017004      0.085081
H      7.28902      6.91654      0.06923        -0.063998      0.067350     -0.148171
H      3.12739      2.85116      0.27696        -0.110784      0.017004      0.085081
H      3.42375      1.66354      1.44407        -0.063998      0.067350     -0.148171
H      0.73788      8.10416      2.49420         0.110784      0.017004     -0.085081
H      0.44152      6.91654      1.32709         0.063998      0.067350      0.148171
H      4.60315      2.85116      1.11936         0.110784      0.017004     -0.085081
H      4.30679      1.66354     -0.04775         0.063998      0.067350      0.148171
C      2.15909      5.25300     -0.19530         0.097057      0.000000     -0.049535
C      3.36044      5.25300     -1.03804        -0.437037      0.000000      0.296017
C      6.02437      0.00000     -1.57014         0.097057      0.000000     -0.049535
C      7.22571      0.00000     -2.41288        -0.437037      0.000000      0.296017
C      5.57145      5.25300      1.59162        -0.097057      0.000000      0.049535
C      4.37010      5.25300      2.43436         0.437037      0.000000     -0.296017
C      1.70618      0.00000      2.96646        -0.097057      0.000000      0.049535
C      0.50483      0.00000      3.80920         0.437037      0.000000     -0.296017
N     -0.00000      3.00093      2.07300         0.000000      0.145597     -0.000000
N      3.86527      8.25393      0.69816         0.000000      0.145597     -0.000000
N     -0.00000      7.50507      2.07300         0.000000     -0.145597     -0.000000
N      3.86527      2.25207      0.69816         0.000000     -0.145597     -0.000000
O      1.70066      6.39067      0.13085         0.018628      0.023436      0.014458
O      5.56593      1.13767     -1.24399         0.018628      0.023436      0.014458
O      6.02988      6.39067      1.26547        -0.018628      0.023436     -0.014458
O      2.16461      1.13767      2.64031        -0.018628      0.023436     -0.014458
O      6.02988      4.11533      1.26547        -0.018628     -0.023436     -0.014458
O      2.16461      9.36833      2.64031        -0.018628     -0.023436     -0.014458
O      1.70066      4.11533      0.13085         0.018628     -0.023436      0.014458
O      5.56593      9.36833     -1.24399         0.018628     -0.023436      0.014458
