36
# total energy = -216.65383382 eVH      4.03122      2.37789      2.27072        -0.028982     -0.038748      0.048547
H      4.22090      1.53497     -0.06043         0.058811      0.126591      0.056670
H      6.89720      0.98820      0.70763        -0.049743     -0.113290      0.057794
H      0.69571      0.61313      3.32483        -0.055897      0.039696     -0.098421
H      6.49127      0.83003      4.26053         0.058499      0.025873     -0.009453
H      4.96742      1.67066      4.24662        -0.028000      0.083196      0.003194
H      4.03122      1.13811      9.44972        -0.028982      0.038748      0.048547
H      4.22090      1.98103      7.11857         0.058811     -0.126591      0.056670
H      6.89720      2.52780      7.88663        -0.049743      0.113290      0.057794
H      0.69571      2.90287     10.50383        -0.055897     -0.039696     -0.098421
H      6.49127      2.68597     11.43953         0.058499     -0.025873     -0.009453
H      4.96742      1.84534     11.42562        -0.028000     -0.083196      0.003194
C      5.81734      1.37669      2.40475         0.231352     -0.034250     -0.086678
C      5.81734      2.13931      9.58375         0.231352      0.034250     -0.086678
N      1.58470      3.44128      5.43612         0.081534      0.008308      0.001489
N      1.43183      3.14353      6.79097         0.035003     -0.000624     -0.087220
N      2.72079      3.01538      4.82075        -0.091968      0.041284      0.010267
N      4.69866      1.78642      1.76073         0.173579      0.001518      0.088964
N      6.89379      0.98370      1.72825        -0.171190      0.008178     -0.017215
N      5.79806      1.36376      3.73682        -0.015460     -0.091266      0.286436
N      1.58470      0.07472     12.61512         0.081534     -0.008308      0.001489
N      1.43183      0.37247     13.96997         0.035003      0.000624     -0.087220
N      2.72079      0.50062     11.99975        -0.091968     -0.041284      0.010267
N      4.69866      1.72958      8.93973         0.173579     -0.001518      0.088964
N      6.89379      2.53230      8.90725        -0.171190     -0.008178     -0.017215
N      5.79806      2.15224     10.91582        -0.015460      0.091266      0.286436
O      2.27136      2.59600      7.51499        -0.018473     -0.055728      0.025278
O      0.30442     -0.00399      7.19565        -0.054394      0.025069     -0.030461
O      3.66973      2.40249      5.36423        -0.040630     -0.055086     -0.038725
O      2.72840      3.29804      3.59323        -0.016195      0.027206     -0.001181
O      4.85425      2.12816      0.42219        -0.067845     -0.026162     -0.209286
O      2.27136      0.92000      0.33599        -0.018473      0.055728      0.025278
O      0.30442      0.00399      0.01665        -0.054394     -0.025069     -0.030461
O      3.66973      1.11351     12.54323        -0.040630      0.055086     -0.038725
O      2.72840      0.21796     10.77223        -0.016195     -0.027206     -0.001181
O      4.85425      1.38784      7.60119        -0.067845      0.026162     -0.209286
