48
# total energy = -176.58548863 eVC      5.18005      3.15558      7.90190        -0.406960      0.103636      0.037716
C      4.74634      1.99092      5.85389        -0.660976      0.282517      0.180451
C      6.12903      1.53064      5.59116         0.742740      0.048972      0.621689
C      7.15639      1.95037      6.66975         0.168278     -0.220469     -0.289438
C      4.99494      0.80817      3.96195         0.427693     -0.426647     -0.529354
C      1.37969      6.85758      1.35103         0.406960      0.103636     -0.037716
C      1.81340      5.69292      3.39904         0.660976      0.282517     -0.180451
C      0.43071      5.23264      3.66178        -0.742740      0.048972     -0.621689
C     12.52284      5.65237      8.67304        -0.168278     -0.220469      0.289438
C      1.56480      4.51017      5.29098        -0.427693     -0.426647      0.529354
C      7.93944      4.24842      4.39596         0.406960     -0.103636     -0.037716
C      8.37315      5.41308      6.44397         0.660976     -0.282517     -0.180451
C      6.99045      5.87336      6.70671        -0.742740     -0.048972     -0.621689
C      5.96310      5.45363      5.62811        -0.168278      0.220469      0.289438
C      8.12455      6.59583      8.33591        -0.427693      0.426647      0.529354
C     11.73979      0.54642     10.94683        -0.406960     -0.103636      0.037716
C     11.30608      1.71108      8.89882        -0.660976     -0.282517      0.180451
C     12.68877      2.17136      8.63609         0.742740     -0.048972      0.621689
C      0.59665      1.75163      3.62482         0.168278      0.220469     -0.289438
C     11.55468      2.89383      7.00688         0.427693      0.426647     -0.529354
N      6.42669      2.72536      7.74882        -1.713211      0.972069      0.885488
N      4.34562      2.70138      6.85532         0.683844     -0.203129     -0.182792
N      6.16542      0.99057      4.64403        -1.793514      0.188666     -0.136372
N      4.17825      1.48105      4.77032         1.483755     -0.425064     -0.101899
N      0.13305      6.42736      1.50411         1.713211      0.972069     -0.885488
N      2.21412      6.40338      2.39761        -0.683844     -0.203129      0.182792
N      0.39433      4.69257      4.60890         1.793514      0.188666      0.136372
N      2.38149      5.18305      4.48261        -1.483755     -0.425064      0.101899
N      6.69280      4.67864      4.54904         1.713211     -0.972069     -0.885488
N      8.77386      4.70262      5.44254        -0.683844      0.203129      0.182792
N      6.95407      6.41343      7.65383         1.793514     -0.188666      0.136372
N      8.94123      5.92295      7.52754        -1.483755      0.425064      0.101899
N     12.98643      0.97664     10.79375        -1.713211     -0.972069      0.885488
N     10.90536      1.00062      9.90025         0.683844      0.203129     -0.182792
N     12.72516      2.71143      7.68896        -1.793514     -0.188666     -0.136372
N     10.73799      2.22095      7.81525         1.483755      0.425064     -0.101899
O      4.87097      3.79762      2.56206         1.164806     -0.106831      0.298185
O      8.19784      1.70775      6.65347         0.527519     -0.412087     -0.005847
O      4.70596      0.24512      2.88908        -0.641317     -0.225070     -0.437207
O      1.68877      0.09562      6.69087        -1.164806     -0.106831     -0.298185
O     11.48139      5.40975      8.68933        -0.527519     -0.412087      0.005847
O      1.85379      3.94712      6.36385         0.641317     -0.225070      0.437207
O      8.24851      3.60638      9.73580        -1.164806      0.106831     -0.298185
O      4.92164      5.69625      5.64439        -0.527519      0.412087      0.005847
O      8.41353      7.15888      9.40878         0.641317      0.225070      0.437207
O     11.43072      7.30838      5.60699         1.164806      0.106831      0.298185
O      1.63810      1.99425      3.60854         0.527519      0.412087     -0.005847
O     11.26570      3.45688      5.93401        -0.641317      0.225070     -0.437207
