48
# total energy = -197.14013386 eVC      5.06330      3.22731      7.97429       -11.620584      0.023094     -4.566115
C      4.53355      2.07360      5.89816        -0.440596     -1.049248     -1.815177
C      6.32612      1.44575      5.58046         1.494310     -0.798118     -0.785897
C      7.31514      1.88099      6.60476        -5.087217      1.669999     -0.088258
C      5.05873      0.69905      3.79966         0.814925     -1.726688     -2.640300
C      1.49644      6.92931      1.27864        11.620584      0.023094      4.566115
C      2.02619      5.77560      3.35477         0.440596     -1.049248      1.815177
C      0.23363      5.14775      3.67247        -1.494310     -0.798118      0.785897
C     12.36408      5.58299      8.73803         5.087217      1.669999      0.088258
C      1.50101      4.40105      5.45328        -0.814925     -1.726688      2.640300
C      8.05618      4.17669      4.32357        11.620584     -0.023094      4.566115
C      8.58593      5.33040      6.39970         0.440596      1.049248      1.815177
C      6.79337      5.95825      6.71740        -1.494310      0.798118      0.785897
C      5.80434      5.52301      5.69310         5.087217     -1.669999      0.088258
C      8.06076      6.70495      8.49821        -0.814925      1.726688      2.640300
C     11.62305      0.47469     11.01922       -11.620584     -0.023094     -4.566115
C     11.09330      1.62840      8.94309        -0.440596      1.049248     -1.815177
C     12.88586      2.25625      8.62539         1.494310      0.798118     -0.785897
C      0.75540      1.82101      3.55983        -5.087217     -1.669999     -0.088258
C     11.61847      3.00295      6.84459         0.814925      1.726688     -2.640300
N      6.01251      2.95443      7.95755         4.041914      1.070655      2.992065
N      4.53247      2.63759      6.78715        -0.413759      1.678252      2.682911
N      5.71651      1.11021      4.75025         7.724376     -0.330251      2.628524
N      4.55131      1.38230      4.76208        -8.165418      1.549376     -0.463965
N      0.54723      6.65643      1.29538        -4.041914      1.070655     -2.992065
N      2.02727      6.33959      2.46578         0.413759      1.678252     -2.682911
N      0.84323      4.81221      4.50268        -7.724376     -0.330251     -2.628524
N      2.00843      5.08430      4.49085         8.165418      1.549376      0.463965
N      7.10697      4.44957      4.34031        -4.041914     -1.070655     -2.992065
N      8.58701      4.76641      5.51071         0.413759     -1.678252     -2.682911
N      7.40298      6.29379      7.54761        -7.724376      0.330251     -2.628524
N      8.56817      6.02170      7.53578         8.165418     -1.549376      0.463965
N     12.57226      0.74757     11.00248         4.041914     -1.070655      2.992065
N     11.09222      1.06441      9.83209        -0.413759     -1.678252      2.682911
N     12.27625      2.59179      7.79518         7.724376      0.330251      2.628524
N     11.11105      2.31970      7.80701        -8.165418     -1.549376     -0.463965
O      5.17530      3.73556      2.58975         6.403766      0.200284      2.726045
O      8.21694      1.62561      6.66914         5.564485     -1.373041      0.330261
O      4.58101      0.20076      2.82685        -1.316093     -0.614988     -1.399222
O      1.38445      0.03356      6.66318        -6.403766      0.200284     -2.726045
O     11.46229      5.32761      8.67366        -5.564485     -1.373041     -0.330261
O      1.97873      3.90276      6.42608         1.316093     -0.614988      1.399222
O      7.94419      3.66844      9.70811        -6.403766     -0.200284     -2.726045
O      4.90255      5.77839      5.62872        -5.564485      1.373041     -0.330261
O      8.53847      7.20324      9.47101         1.316093      0.614988      1.399222
O     11.73504      7.37044      5.63468         6.403766     -0.200284      2.726045
O      1.65720      2.07639      3.62421         5.564485      1.373041      0.330261
O     11.14075      3.50124      5.87178        -1.316093      0.614988     -1.399222
