36
# total energy = -216.65380814 eVH      4.03122      2.37767      2.27050        -0.036773     -0.031624      0.055262
H      4.22077      1.53499     -0.06015         0.069229      0.136440      0.061424
H      6.89703      0.98791      0.70773        -0.050198     -0.112522      0.058096
H      0.69600      0.61308      3.32451        -0.055924      0.039182     -0.095047
H      6.49161      0.82996      4.26047         0.047691      0.033732     -0.015652
H      4.96718      1.67095      4.24665        -0.018762      0.079551     -0.000542
H      4.03122      1.13833      9.44950        -0.036773      0.031624      0.055262
H      4.22077      1.98101      7.11885         0.069229     -0.136440      0.061424
H      6.89703      2.52809      7.88673        -0.050198      0.112522      0.058096
H      0.69600      2.90292     10.50351        -0.055924     -0.039182     -0.095047
H      6.49161      2.68604     11.43947         0.047691     -0.033732     -0.015652
H      4.96718      1.84505     11.42565        -0.018762     -0.079551     -0.000542
C      5.81722      1.37680      2.40500         0.245743     -0.040679     -0.107978
C      5.81722      2.13920      9.58400         0.245743      0.040679     -0.107978
N      1.58474      3.44140      5.43610         0.083341      0.006748      0.002843
N      1.43180      3.14350      6.79102         0.034400      0.001614     -0.093585
N      2.72079      3.01539      4.82069        -0.093567      0.041842      0.009812
N      4.69878      1.78667      1.76078         0.179639     -0.005695      0.089297
N      6.89385      0.98355      1.72835        -0.181989      0.013113     -0.016219
N      5.79791      1.36365      3.73668        -0.014324     -0.095267      0.315406
N      1.58474      0.07460     12.61510         0.083341     -0.006748      0.002843
N      1.43180      0.37250     13.97002         0.034400     -0.001614     -0.093585
N      2.72079      0.50061     11.99969        -0.093567     -0.041842      0.009812
N      4.69878      1.72933      8.93978         0.179639      0.005695      0.089297
N      6.89385      2.53245      8.90735        -0.181989     -0.013113     -0.016219
N      5.79791      2.15235     10.91568        -0.014324      0.095267      0.315406
O      2.27120      2.59592      7.51502        -0.015161     -0.057696      0.027662
O      0.30440     -0.00396      7.19550        -0.057480      0.025686     -0.028063
O      3.66972      2.40231      5.36407        -0.041710     -0.054115     -0.038816
O      2.72830      3.29815      3.59318        -0.014962      0.026343      0.000296
O      4.85451      2.12836      0.42249        -0.079194     -0.035909     -0.224195
O      2.27120      0.92008      0.33602        -0.015161      0.057696      0.027662
O      0.30440      0.00396      0.01650        -0.057480     -0.025686     -0.028063
O      3.66972      1.11369     12.54307        -0.041710      0.054115     -0.038816
O      2.72830      0.21785     10.77218        -0.014962     -0.026343      0.000296
O      4.85451      1.38764      7.60149        -0.079194      0.035909     -0.224195
