40
# total energy = -222.15527645 eVH      6.21753      1.24728      6.06671        -1.076347      0.380819      0.409737
H      4.96759      3.08049      4.80962        -0.775441     -0.788461      1.216078
H      5.77937      4.11506      3.96414         0.866387      1.284984     -1.085468
H      5.89653      4.39618      5.73455        -0.486330      0.038640      0.238615
H      6.10758      1.45976      3.69281        -0.579357     -1.187243      0.537939
H      4.32567      4.24412      1.71401         1.076347     -0.380819      0.409737
H      5.57561      2.41091      0.45692         0.775441      0.788461      1.216078
H      4.76383      1.37634      8.31684        -0.866387     -1.284984     -1.085468
H      4.64667      1.09522      1.38185         0.486330     -0.038640      0.238615
H      4.43562      4.03164      8.04551         0.579357      1.187243      0.537939
H      2.70313      4.24412      1.71401        -1.076347     -0.380819      0.409737
H      1.45319      2.41091      0.45692        -0.775441      0.788461      1.216078
H      2.26497      1.37634      8.31684         0.866387     -1.284984     -1.085468
H      2.38213      1.09522      1.38185        -0.486330     -0.038640      0.238615
H      2.59318      4.03164      8.04551        -0.579357      1.187243      0.537939
H      0.81127      1.24728      6.06671         1.076347      0.380819      0.409737
H      2.06121      3.08049      4.80962         0.775441     -0.788461      1.216078
H      1.24943      4.11506      3.96414        -0.866387      1.284984     -1.085468
H      1.13227      4.39618      5.73455         0.486330      0.038640      0.238615
H      0.92122      1.45976      3.69281         0.579357     -1.187243      0.537939
H     -0.00000      2.59113      7.06242         0.000000     -0.297163      0.145766
H     -0.00000      2.62878      2.95434         0.000000      0.107173      0.312492
H      3.51440      2.90027      2.70972         0.000000      0.297163      0.145766
H      3.51440      2.86262      7.30704         0.000000     -0.107173      0.312492
C      5.85344      3.67401      4.92640        -0.874304      0.364879      0.030563
C      4.68976      1.81739      0.57370         0.874304     -0.364879      0.030563
C      2.33904      1.81739      0.57370        -0.874304     -0.364879      0.030563
C      1.17536      3.67401      4.92640         0.874304      0.364879      0.030563
C     -0.00000      4.81096      0.60788         0.000000      0.162823      5.295363
C     -0.00000      1.95890      6.17051         0.000000     -0.650579      0.362980
C     -0.00000      1.96990      3.85874         0.000000      0.739046     -4.210324
C      3.51440      0.68044      4.96058         0.000000     -0.162823      5.295363
C      3.51440      3.53250      1.81781         0.000000      0.650579      0.362980
C      3.51440      3.52150     -0.49396         0.000000     -0.739046     -4.210324
N     -0.00000      4.83185      1.87284         0.000000     -0.140877     -4.703106
N     -0.00000      2.82263      4.98136         0.000000     -0.035225      0.785446
N      3.51440      0.65955      6.22554         0.000000      0.140877     -4.703106
N      3.51440      2.66877      0.62866         0.000000      0.035225      0.785446
O     -0.00000      4.80348      8.09392         0.000000     -0.098156     -0.683544
O      3.51440      0.68792      3.74122         0.000000      0.098156     -0.683544
