40
# total energy = -224.80881162 eVH      6.12534      1.33003      6.13405         0.019006      0.042903      0.024220
H      4.92220      3.03923      4.95650         0.052050      0.040041     -0.016368
H      5.81863      4.26578      3.97466        -0.019720      0.025377     -0.017972
H      5.83113      4.35127      5.78150         0.006670     -0.076273     -0.034692
H      6.12842      1.32010      3.68751         0.068675      0.052562      0.013962
H      4.41786      4.16137      1.78135        -0.019006     -0.042903      0.024220
H      5.62100      2.45217      0.60380        -0.052050     -0.040041     -0.016368
H      4.72457      1.22562      8.32736         0.019720     -0.025377     -0.017972
H      4.71207      1.14013      1.42880        -0.006670      0.076273     -0.034692
H      4.41478      4.17130      8.04021        -0.068675     -0.052562      0.013962
H      2.61094      4.16137      1.78135         0.019006     -0.042903      0.024220
H      1.40780      2.45217      0.60380         0.052050     -0.040041     -0.016368
H      2.30423      1.22562      8.32736        -0.019720     -0.025377     -0.017972
H      2.31673      1.14013      1.42880         0.006670      0.076273     -0.034692
H      2.61402      4.17130      8.04021         0.068675     -0.052562      0.013962
H      0.90346      1.33003      6.13405        -0.019006      0.042903      0.024220
H      2.10660      3.03923      4.95650        -0.052050      0.040041     -0.016368
H      1.21017      4.26578      3.97466         0.019720      0.025377     -0.017972
H      1.19767      4.35127      5.78150        -0.006670     -0.076273     -0.034692
H      0.90038      1.32010      3.68751        -0.068675      0.052562      0.013962
H     -0.00000      2.60908      7.02416         0.000000      0.036855     -0.017458
H     -0.00000      2.62060      2.81532         0.000000      0.004061      0.000221
H      3.51440      2.88232      2.67146         0.000000     -0.036855     -0.017458
H      3.51440      2.87080      7.16802         0.000000     -0.004061      0.000221
C      5.80404      3.69031      4.90632         0.067250     -0.075525      0.055076
C      4.73916      1.80109      0.55362        -0.067250      0.075525      0.055076
C      2.28964      1.80109      0.55362         0.067250      0.075525      0.055076
C      1.22476      3.69031      4.90632        -0.067250     -0.075525      0.055076
C     -0.00000      4.79135      0.61587         0.000000     -0.071060     -0.015266
C     -0.00000      1.95317      6.14666         0.000000     -0.060554     -0.073258
C     -0.00000      1.94710      3.68108         0.000000      0.040366      0.210651
C      3.51440      0.70005      4.96857         0.000000      0.071060     -0.015266
C      3.51440      3.53823      1.79396         0.000000      0.060554     -0.073258
C      3.51440      3.54430     -0.67162         0.000000     -0.040366      0.210651
N     -0.00000      4.77629      1.81728         0.000000     -0.019219     -0.025643
N     -0.00000      2.81612      4.91911         0.000000     -0.025130     -0.115106
N      3.51440      0.71511      6.16998         0.000000      0.019219     -0.025643
N      3.51440      2.67528      0.56641         0.000000      0.025130     -0.115106
O     -0.00000      4.78628      8.08990         0.000000      0.023915     -0.012593
O      3.51440      0.70512      3.73720         0.000000     -0.023915     -0.012593
