56
# total energy = -353.19071841 eVH      5.16613      2.30102      4.06083        -0.039837      0.005469     -0.001756
H      6.56420      1.97669      5.08850        -0.006627     -0.004667     -0.024178
H      3.07286      1.99759      4.86347         0.010540      0.001527     -0.020761
H      2.78288      1.28139      6.43389         0.040868     -0.021445      0.032742
H      5.21522      5.57677      1.56535         0.039837      0.005469      0.001756
H      3.81715      5.25244      0.53768         0.006627     -0.004667      0.024178
H      0.38759      5.27334      0.76996        -0.010540      0.001527      0.020761
H      0.67757      4.55714     10.47364        -0.040868     -0.021445     -0.032742
H      1.75477      4.25048      7.20602         0.039837     -0.005469      0.001756
H      0.35670      4.57481      6.17835         0.006627      0.004667      0.024178
H      3.84803      4.55391      6.40338        -0.010540     -0.001527      0.020761
H      4.13802      5.27011      4.83297        -0.040868      0.021445     -0.032742
H      1.70568      0.97473      9.70150        -0.039837     -0.005469     -0.001756
H      3.10375      1.29906     10.72918        -0.006627      0.004667     -0.024178
H      6.53331      1.27816     10.49690         0.010540     -0.001527     -0.020761
H      6.24333      1.99436      0.79321         0.040868      0.021445      0.032742
C      5.31591      1.10669      7.19784        -0.001207      0.002091     -0.014769
C      4.75805      1.57175      5.92773        -0.039285     -0.017508      0.064526
C      5.06543      4.38244      9.70244         0.001207      0.002091      0.014769
C      5.62329      4.84750     10.97255         0.039285     -0.017508     -0.064526
C      1.60499      5.44481      4.06901         0.001207     -0.002091      0.014769
C      2.16284      4.97975      5.33912         0.039285      0.017508     -0.064526
C      1.85546      2.16906      1.56441        -0.001207     -0.002091     -0.014769
C      1.29761      1.70400      0.29430        -0.039285      0.017508      0.064526
N      6.69181      0.94990      7.43035         0.006516     -0.000319     -0.005145
N      4.45172      0.83190      8.28490        -0.016843      0.031469     -0.015876
N      5.55444      1.97042      4.94654         0.022869     -0.012215      0.005104
N      3.44001      1.66000      5.75458         0.009897      0.017956     -0.036870
N      3.68953      4.22565      9.46992        -0.006516     -0.000319      0.005145
N      5.92962      4.10765      8.61537         0.016843      0.031469      0.015876
N      4.82691      5.24617      0.67963        -0.022869     -0.012215     -0.005104
N      0.02043      4.93575     11.15295        -0.009897      0.017956      0.036870
N      0.22908      5.60160      3.83650        -0.006516      0.000319      0.005145
N      2.46918      5.71960      2.98195         0.016843     -0.031469      0.015876
N      1.36646      4.58108      6.32031        -0.022869      0.012215     -0.005104
N      3.48088      4.89150      5.51227        -0.009897     -0.017956      0.036870
N      3.23137      2.32585      1.79693         0.006516      0.000319     -0.005145
N      0.99127      2.44385      2.65148        -0.016843     -0.031469     -0.015876
N      2.09399      1.30533     10.58722         0.022869      0.012215      0.005104
N     -0.02043      1.61575      0.12115         0.009897     -0.017956     -0.036870
O      0.17487      0.38341      8.48525        -0.000964      0.027722     -0.007952
O      0.58391      1.32500      6.54728         0.007249      0.006140      0.001645
O      3.30395      0.38466      8.03978        -0.007979      0.013120     -0.017674
O      4.81563      1.06816      9.46205         0.020203     -0.014712     -0.028216
O      3.28558      3.65916      8.42227         0.000964      0.027722      0.007952
O      2.87653      4.60075     10.36024        -0.007249      0.006140     -0.001645
O      0.15650      3.66041      8.86774         0.007979      0.013120      0.017674
O      5.56571      4.34391      7.43823        -0.020203     -0.014712      0.028216
O      6.74603      6.16809      2.78160         0.000964     -0.027722      0.007952
O      6.33698      5.22650      4.71957        -0.007249     -0.006140     -0.001645
O      3.61694      6.16684      3.22707         0.007979     -0.013120      0.017674
O      2.10526      5.48334      1.80480        -0.020203      0.014712      0.028216
O      3.63532      2.89234      2.84458        -0.000964     -0.027722     -0.007952
O      4.04436      1.95075      0.90661         0.007249     -0.006140      0.001645
O      6.76440      2.89109      2.39911        -0.007979     -0.013120     -0.017674
O      1.35519      2.20759      3.82863         0.020203      0.014712     -0.028216
