12
# total energy = -68.70934780 eVC      2.47518      1.30750      0.97502       -17.950299     -0.000000     -4.922687
C      2.93482      3.92250      2.76002        17.950299     -0.000000     -4.922687
C      8.34482      3.92250      2.59498        17.950299      0.000000      4.922687
C      7.88518      1.30750      0.80998       -17.950299     -0.000000      4.922687
N     -1.19788      1.30750     -0.22424        -4.985816     -0.000000      4.938507
N      6.60788      3.92250      1.56076         4.985816      0.000000      4.938507
N      1.19788      3.92250      0.22424         4.985816     -0.000000     -4.938507
N      4.21212      1.30750      2.00924        -4.985816      0.000000     -4.938507
O      3.26034      1.30750      1.17516        22.959518     -0.000000      9.860896
O      2.14966      3.92250      2.96016       -22.959518     -0.000000      9.860896
O      7.55966      3.92250      2.39484       -22.959518     -0.000000     -9.860896
O      8.67034      1.30750      0.60984        22.959518      0.000000     -9.860896
