16
# total energy = -80.64474812 eVC      2.84360      0.66898      1.28586         0.295264     -3.863715     -0.020682
C      2.49239      5.19898      1.76325        -0.295264     -3.863715      0.020682
C      0.71372      8.39102      5.41354        -0.295264      3.863715      0.020682
C      1.06494      3.86102      4.93616         0.295264      3.863715     -0.020682
N     -0.25840      0.78134      0.16156         1.576701    -11.115652     -2.076124
N      0.02142      1.94568      0.32059         0.712973      7.143810      0.880606
N      2.03706      5.31134      3.18814        -1.576701    -11.115652      2.076124
N      1.75724      6.47568      3.02911        -0.712973      7.143810     -0.880606
N      0.25840      8.27866     -0.16156        -1.576701     11.115652      2.076124
N     -0.02142      7.11432      6.67941        -0.712973     -7.143810     -0.880606
N      1.52026      3.74866      3.51126         1.576701     11.115652     -2.076124
N      1.80008      2.58432      3.67029         0.712973     -7.143810      0.880606
O      2.50042      1.41160      1.87979        -0.419472      4.426409      0.638751
O      2.83557      5.94160      1.16932         0.419472      4.426409     -0.638751
O      1.05691      7.64840      4.81962         0.419472     -4.426409     -0.638751
O      0.72176      3.11840      5.53008        -0.419472     -4.426409      0.638751
