44
# total energy = -296.64847485 eVH      8.38407      8.42823      1.97864        -0.366677      0.549610     -1.284589
H      8.45261      9.01230      0.18915        -0.494421     -0.176694      0.927441
H      2.50358      5.62176      3.98234         0.222174      0.357403     -0.306646
H      1.15980      4.41534      3.54635         1.364332      0.872701      1.158693
H      0.67919      1.50094      0.51151         0.366677     -0.549610      1.284589
H      0.61064      0.91688      2.30100         0.494421      0.176694     -0.927441
H      6.55968      4.30741     -1.49219        -0.222174     -0.357403      0.306646
H      7.90345      5.51384     -1.05620        -1.364332     -0.872701     -1.158693
C      6.70514      1.57781      2.40620         4.198682     -1.600301     -1.819081
C      2.02812      4.23103      5.48035        -1.051973      1.804101     -4.956515
C      2.35812      8.35136      0.08395        -4.198682      1.600301      1.819081
C      7.03514      5.69814     -2.99020         1.051973     -1.804101      4.956515
N      5.97159      2.22230      1.48003         0.043329     -0.275710      0.851985
N      7.94971      8.84319      1.09242        -1.549796      0.713468      1.034015
N      6.47977      2.39001      0.26007        -0.171741      0.487879     -1.066059
N      6.21241      1.43899      3.67666         3.304550     -1.325360     -0.707364
N      5.13254      1.90592      3.79911       -10.457368      3.948405      3.065003
N      4.03873      2.32785      4.09862         5.627277     -2.185378     -1.546161
N      1.30958      3.22689      6.01883         0.989855      0.999272     -0.284893
N      1.87854      4.85427      4.21258        -1.256776     -2.979997      2.525298
N      0.32456      2.69796      5.28654        -0.880607     -0.699277     -0.285091
N      3.04860      4.81562     -0.93118        -0.559276      0.756345     -3.355026
N      3.08120      4.40549      0.18241         1.660026     -2.754626     10.777044
N      3.22294      4.08992      1.33692        -0.720717      1.585414     -5.778736
N      3.09167      7.70687      1.01012        -0.043329      0.275710     -0.851985
N      1.11355      1.08598      1.39773         1.549796     -0.713468     -1.034015
N      2.58348      7.53916      2.23008         0.171741     -0.487879      1.066059
N      2.85084      0.63028     -0.03848        -3.304550      1.325360      0.707364
N      3.93072      8.02325     -1.30896        10.457368     -3.948405     -3.065003
N      5.02453      7.60132     -1.60847        -5.627277      2.185378      1.546161
N      7.75368      6.70228     -3.52867        -0.989855     -0.999272      0.284893
N      7.18471      5.07490     -1.72243         1.256776      2.979997     -2.525298
N      8.73870      7.23121     -2.79639         0.880607      0.699277      0.285091
N      6.01466      5.11355      3.42133         0.559276     -0.756345      3.355026
N      5.98206      5.52369      2.30774        -1.660026      2.754626    -10.777044
N      5.84032      5.83925      1.15323         0.720717     -1.585414      5.778736
O      5.67332      2.99119     -0.53650         0.750655     -0.501912      0.356039
O      7.63199      2.02083     -0.11835        -0.809494      0.252522      0.209337
O      8.71934      3.90431      2.43938         0.077336      0.288934     -0.529425
O      0.05697      2.99692      4.07560         0.321931     -0.270184      1.102175
O      3.38994      6.93798      3.02665        -0.750655      0.501912     -0.356039
O      1.43126      7.90835      2.60850         0.809494     -0.252522     -0.209337
O      0.34391      6.02487      0.05077        -0.077336     -0.288934      0.529425
O      9.00629      6.93225     -1.58544        -0.321931      0.270184     -1.102175
