48
# total energy = -195.96752518 eVC      5.08313      3.22322      7.97539       -11.055759     -0.215057     -4.747404
C      4.54713      2.06959      5.89730        -0.367423     -0.976641     -1.671757
C      6.31188      1.45119      5.58058         1.730757     -0.623265     -0.395967
C      7.31210      1.88324      6.60898        -5.561226      1.751292     -0.118668
C      5.05372      0.70792      3.81288         0.794212     -1.808519     -2.781199
C      1.47661      6.92522      1.27754        11.055759     -0.215057      4.747404
C      2.01261      5.77159      3.35564         0.367423     -0.976641      1.671757
C      0.24787      5.15319      3.67235        -1.730757     -0.623265      0.395967
C     12.36713      5.58524      8.73381         5.561226      1.751292      0.118668
C      1.50602      4.40992      5.44005        -0.794212     -1.808519      2.781199
C      8.03635      4.18078      4.32247        11.055759      0.215057      4.747404
C      8.57236      5.33441      6.40057         0.367423      0.976641      1.671757
C      6.80761      5.95281      6.71728        -1.730757      0.623265      0.395967
C      5.80739      5.52076      5.68888         5.561226     -1.751292      0.118668
C      8.06576      6.69608      8.48498        -0.794212      1.808519      2.781199
C     11.64287      0.47878     11.02032       -11.055759      0.215057     -4.747404
C     11.10687      1.63241      8.94223        -0.367423      0.976641     -1.671757
C     12.87162      2.25081      8.62551         1.730757      0.623265     -0.395967
C      0.75235      1.81876      3.56405        -5.561226     -1.751292     -0.118668
C     11.61347      2.99408      6.85781         0.794212      1.808519     -2.781199
N      6.03423      2.93900      7.94137         3.690576      0.949493      2.734396
N      4.52122      2.63964      6.78837        -0.353656      1.673815      2.626427
N      5.73986      1.10290      4.74192         3.823946      0.372660      2.310169
N      4.53357      1.38755      4.76309        -4.573871      0.753421     -0.391033
N      0.52551      6.64100      1.31156        -3.690576      0.949493     -2.734396
N      2.03852      6.34164      2.46456         0.353656      1.673815     -2.626427
N      0.81989      4.80490      4.51101        -3.823946      0.372660     -2.310169
N      2.02618      5.08955      4.48984         4.573871      0.753421      0.391033
N      7.08525      4.46500      4.35649        -3.690576     -0.949493     -2.734396
N      8.59827      4.76436      5.50949         0.353656     -1.673815     -2.626427
N      7.37963      6.30110      7.55594        -3.823946     -0.372660     -2.310169
N      8.58592      6.01645      7.53477         4.573871     -0.753421      0.391033
N     12.59397      0.76300     10.98630         3.690576     -0.949493      2.734396
N     11.08096      1.06236      9.83330        -0.353656     -1.673815      2.626427
N     12.29960      2.59910      7.78685         3.823946     -0.372660      2.310169
N     11.09331      2.31445      7.80802        -4.573871     -0.753421     -0.391033
O      5.14936      3.73882      2.58447         6.140305      0.408282      2.940349
O      8.20833      1.63255      6.66781         6.044940     -1.489018      0.349243
O      4.59039      0.20421      2.83235        -1.324699     -0.577602     -1.313908
O      1.41038      0.03682      6.66846        -6.140305      0.408282     -2.940349
O     11.47090      5.33455      8.67498        -6.044940     -1.489018     -0.349243
O      1.96935      3.90621      6.42058         1.324699     -0.577602      1.313908
O      7.97012      3.66518      9.71340        -6.140305     -0.408282     -2.940349
O      4.91116      5.77145      5.63005        -6.044940      1.489018     -0.349243
O      8.52909      7.19979      9.46552         1.324699      0.577602      1.313908
O     11.70910      7.36718      5.62940         6.140305     -0.408282      2.940349
O      1.64859      2.06945      3.62288         6.044940      1.489018      0.349243
O     11.15014      3.49779      5.87728        -1.324699      0.577602     -1.313908
