12
# total energy = -76.48251873 eVC      2.38848      1.30750      0.85389        -0.152957      0.000000     -0.010903
C      3.02152      3.92250      2.63889         0.152957     -0.000000     -0.010903
C      8.43152      3.92250      2.71611         0.152957     -0.000000      0.010903
C      7.79848      1.30750      0.93111        -0.152957     -0.000000      0.010903
N     -1.11636      1.30750     -0.12668         0.140903      0.000000     -0.061186
N      6.52636      3.92250      1.65832        -0.140903      0.000000     -0.061186
N      1.11636      3.92250      0.12668        -0.140903      0.000000      0.061186
N      4.29364      1.30750      1.91168         0.140903      0.000000      0.061186
O      3.23306      1.30750      1.40385        -0.011344      0.000000     -0.043708
O      2.17694      3.92250      3.18885         0.011344      0.000000     -0.043708
O      7.58694      3.92250      2.16615         0.011344      0.000000      0.043708
O      8.64306      1.30750      0.38115        -0.011344     -0.000000      0.043708
