56
# total energy = -351.93380582 eVH      5.14878      2.26713      4.09574         0.085413      0.185863     -0.359811
H      6.52160      1.99178      5.16437         1.172232      0.009556     -0.090559
H      3.08739      1.97132      4.91130         0.017845      0.459676     -1.081920
H      2.81097      1.32240      6.38374        -0.481028     -0.562570      1.155754
H      5.23256      5.54288      1.53044        -0.085413      0.185863      0.359811
H      3.85974      5.26753      0.46181        -1.172232      0.009556      0.090559
H      0.37306      5.24707      0.72212        -0.017845      0.459676      1.081920
H      0.64948      4.59815     10.52379         0.481028     -0.562570     -1.155754
H      1.77212      4.28437      7.17111        -0.085413     -0.185863      0.359811
H      0.39929      4.55972      6.10248        -1.172232     -0.009556      0.090559
H      3.83350      4.58018      6.35555        -0.017845     -0.459676      1.081920
H      4.10992      5.22910      4.88312         0.481028      0.562570     -1.155754
H      1.68833      1.00862      9.73641         0.085413     -0.185863     -0.359811
H      3.06116      1.28397     10.80504         1.172232     -0.009556     -0.090559
H      6.54784      1.30443     10.54473         0.017845     -0.459676     -1.081920
H      6.27142      1.95335      0.74306        -0.481028      0.562570      1.155754
C      5.30947      1.10533      7.17745         0.083203     -0.175140      0.580234
C      4.74955      1.57318      5.92586         3.329682     -0.650236      1.482458
C      5.07187      4.38108      9.72282        -0.083203     -0.175140     -0.580234
C      5.63180      4.84893     10.97442        -3.329682     -0.650236     -1.482458
C      1.61143      5.44617      4.08940        -0.083203      0.175140     -0.580234
C      2.17135      4.97832      5.34099        -3.329682      0.650236     -1.482458
C      1.84902      2.17042      1.54403         0.083203      0.175140      0.580234
C      1.28910      1.70257      0.29244         3.329682      0.650236      1.482458
N      6.67184      0.94216      7.41798         0.193638      0.091492     -0.111222
N      4.45392      0.83556      8.26743         0.045689      0.025198     -0.109157
N      5.54593      1.95548      4.97516         0.041930      0.411689     -1.249529
N      3.50798      1.66717      5.76657        -4.529680      0.366686     -0.713510
N      3.70950      4.21791      9.48230        -0.193638      0.091492      0.111222
N      5.92743      4.11131      8.63284        -0.045689      0.025198      0.109157
N      4.83542      5.23123      0.65101        -0.041930      0.411689      1.249529
N     -0.04753      4.94292     11.14095         4.529680      0.366686      0.713510
N      0.24906      5.60934      3.84888        -0.193638     -0.091492      0.111222
N      2.46698      5.71594      2.99942        -0.045689     -0.025198      0.109157
N      1.37497      4.59602      6.29169        -0.041930     -0.411689      1.249529
N      3.41292      4.88433      5.50028         4.529680     -0.366686      0.713510
N      3.21139      2.33359      1.78455         0.193638     -0.091492     -0.111222
N      0.99347      2.44019      2.63401         0.045689     -0.025198     -0.109157
N      2.08548      1.32027     10.61584         0.041930     -0.411689     -1.249529
N      0.04753      1.60858      0.13315        -4.529680     -0.366686     -0.713510
O      0.15776      0.37911      8.46547         0.068019     -0.176678      0.357105
O      0.56759      1.31790      6.54158         0.291658      0.149394     -0.287219
O      3.31775      0.37337      8.02870        -0.391723     -0.143148     -0.064129
O      4.82132      1.08691      9.43235         0.099208      0.063077      0.437073
O      3.30269      3.65486      8.44206        -0.068019     -0.176678     -0.357105
O      2.89286      4.59365     10.36595        -0.291658      0.149394      0.287219
O      0.14270      3.64912      8.87883         0.391723     -0.143148      0.064129
O      5.56003      4.36266      7.46793        -0.099208      0.063077     -0.437073
O      6.76314      6.17239      2.80138        -0.068019      0.176678     -0.357105
O      6.35330      5.23360      4.72527        -0.291658     -0.149394      0.287219
O      3.60315      6.17813      3.23816         0.391723      0.143148      0.064129
O      2.09958      5.46459      1.83450        -0.099208     -0.063077     -0.437073
O      3.61820      2.89664      2.82479         0.068019      0.176678      0.357105
O      4.02804      1.95785      0.90091         0.291658     -0.149394     -0.287219
O      6.77820      2.90238      2.38802        -0.391723      0.143148     -0.064129
O      1.36087      2.18884      3.79893         0.099208     -0.063077      0.437073
