40
# total energy = -64.90510646 eVH      5.33124      0.55660      3.94103        -0.155329     -0.456543     -0.104449
H      5.02173      0.81872      1.60271        -0.463281      1.113993     -0.103367
H      7.16526      3.03095      3.94103         0.155329      0.456543     -0.104449
H      7.47477      2.76883      1.60271         0.463281     -1.113993     -0.103367
H      2.99976      4.14415      1.52117         0.155329     -0.456543      0.104449
H      3.30927      4.40627      3.85949         0.463281      1.113993      0.103367
H      1.16574      6.61850      1.52117        -0.155329      0.456543      0.104449
H      0.85623      6.35638      3.85949        -0.463281     -1.113993      0.103367
H      2.99976      6.61850      1.52117         0.155329      0.456543      0.104449
H      3.30927      6.35638      3.85949         0.463281     -1.113993      0.103367
H      1.16574      4.14415      1.52117        -0.155329     -0.456543      0.104449
H      0.85623      4.40627      3.85949        -0.463281      1.113993      0.103367
H      5.33124      3.03095      3.94103        -0.155329      0.456543     -0.104449
H      5.02173      2.76883      1.60271        -0.463281     -1.113993     -0.103367
H      7.16526      0.55660      3.94103         0.155329     -0.456543     -0.104449
H      7.47477      0.81872      1.60271         0.463281      1.113993     -0.103367
H      6.24825      6.77348      5.26341         0.000000     -0.578180      0.260336
H      6.24825      3.98917      5.26341         0.000000      0.578180      0.260336
H      2.08275      3.18593      0.19879         0.000000     -0.578180     -0.260336
H      2.08275      0.40162      0.19879         0.000000      0.578180     -0.260336
H      4.09622      1.79377      0.33894        -0.750446     -0.000000     -0.108857
H      0.06928      1.79377      0.33894         0.750446      0.000000     -0.108857
H      4.23478      5.38132      5.12326         0.750446      0.000000      0.108857
H     -0.06928      5.38132      5.12326        -0.750446     -0.000000      0.108857
C      6.24825      0.29089      4.44727         0.000000      0.215236     -0.131930
C      6.24825      3.29666      4.44727         0.000000     -0.215236     -0.131930
C      2.08275      3.87844      1.01493         0.000000      0.215236      0.131930
C      2.08275      6.88421      1.01493         0.000000     -0.215236      0.131930
C      4.90526      1.79377      1.03883         1.448928      0.000000      1.008200
C      7.59124      1.79377      1.03883        -1.448928      0.000000      1.008200
C      3.42574      5.38132      4.42337        -1.448928      0.000000     -1.008200
C      0.73976      5.38132      4.42337         1.448928      0.000000     -1.008200
N      6.24825      1.79377      0.06207         0.000000      0.000000     -0.234696
N      2.08275      5.38132      5.40013         0.000000     -0.000000      0.234696
N      2.08275      1.79377      1.96685         0.000000     -0.000000     -0.987487
N      6.24825      5.38132      3.49535         0.000000      0.000000      0.987487
O      3.64101      1.79377      3.82410        -0.218187     -0.000000      0.191260
O      0.52449      1.79377      3.82410         0.218187      0.000000      0.191260
O      4.68999      5.38132      1.63810         0.218187     -0.000000     -0.191260
O      7.80651      5.38132      1.63810        -0.218187      0.000000     -0.191260
