36
# total energy = -216.70032231 eVH      4.02413      2.35348      2.28431         0.031661      0.023353     -0.011339
H      4.21540      1.56601     -0.04138        -0.010531      0.006917      0.009792
H      6.84880      0.93049      0.70548         0.028771     -0.048869     -0.005266
H      0.71372      0.61194      3.29381        -0.011830     -0.030094     -0.017800
H      6.51177      0.84262      4.28511         0.012886     -0.014407     -0.019152
H      4.98638      1.70339      4.26020         0.046576      0.021366     -0.034885
H      4.02413      1.16252      9.46331         0.031661     -0.023353     -0.011339
H      4.21540      1.94999      7.13762        -0.010531     -0.006917      0.009792
H      6.84880      2.58551      7.88448         0.028771      0.048869     -0.005266
H      0.71372      2.90406     10.47281        -0.011830      0.030094     -0.017800
H      6.51177      2.67338     11.46411         0.012886      0.014407     -0.019152
H      4.98638      1.81261     11.43920         0.046576     -0.021366     -0.034885
C      5.83457      1.37328      2.41686        -0.011937     -0.019263      0.055217
C      5.83457      2.14272      9.59586        -0.011937      0.019263      0.055217
N      1.59653      3.46584      5.43752        -0.022942      0.015694      0.002431
N      1.42870      3.14079      6.78261        -0.037443      0.018783     -0.044069
N      2.71104      3.01797      4.80986         0.002201     -0.001917      0.008677
N      4.73628      1.82077      1.77062        -0.040328     -0.066525      0.045731
N      6.88997      0.96097      1.72375        -0.050224     -0.005712     -0.006283
N      5.79639      1.33629      3.75234         0.042360      0.033278      0.002152
N      1.59653      0.05016     12.61652        -0.022942     -0.015694      0.002431
N      1.42870      0.37521     13.96161        -0.037443     -0.018783     -0.044069
N      2.71104      0.49803     11.98886         0.002201      0.001917      0.008677
N      4.73628      1.69523      8.94962        -0.040328      0.066525      0.045731
N      6.88997      2.55503      8.90275        -0.050224      0.005712     -0.006283
N      5.79639      2.17971     10.93134         0.042360     -0.033278      0.002152
O      2.25101      2.57087      7.51022         0.005396     -0.026738     -0.030166
O      0.29836      0.00092      7.17705         0.006824     -0.011147      0.035807
O      3.64326      2.37035      5.34156        -0.001480     -0.030362     -0.003817
O      2.71791      3.31621      3.58540         0.019615     -0.004598     -0.016591
O      4.87282      2.14178      0.42328        -0.009576      0.064435      0.029562
O      2.25101      0.94513      0.33122         0.005396      0.026738     -0.030166
O      0.29836     -0.00092     -0.00195         0.006824      0.011147      0.035807
O      3.64326      1.14565     12.52056        -0.001480      0.030362     -0.003817
O      2.71791      0.19979     10.76440         0.019615      0.004598     -0.016591
O      4.87282      1.37422      7.60228        -0.009576     -0.064435      0.029562
