16
# total energy = -96.26794700 eVC      2.51032      0.71681      1.85519         0.785488      3.464033     -1.505918
C      2.82567      5.24681      1.19392        -0.785488      3.464033      1.505918
C      1.04700      8.34319      4.84422        -0.785488     -3.464033      1.505918
C      0.73166      3.81319      5.50548         0.785488     -3.464033     -1.505918
N     -0.04026      0.66444      0.02548         1.706218     -9.796078     -2.857602
N     -0.13430      1.83681      0.47829        -2.253632      2.858958      4.371223
N      1.81892      5.19444      3.32422        -1.706218     -9.796078      2.857602
N      1.91296      6.36681      2.87141         2.253632      2.858958     -4.371223
N      0.04026      8.39556     -0.02548        -1.706218      9.796078      2.857602
N      0.13430      7.22319      6.52171         2.253632     -2.858958     -4.371223
N      1.73840      3.86556      3.37518         1.706218      9.796078     -2.857602
N      1.64436      2.69319      3.82800        -2.253632     -2.858958      4.371223
O      2.80365      1.89163      1.32633        -0.227638     -0.890293      1.037130
O      2.53233      6.42163      1.72278         0.227638     -0.890293     -1.037130
O      0.75367      7.16837      5.37307         0.227638      0.890293     -1.037130
O      1.02499      2.63837      4.97663        -0.227638      0.890293      1.037130
