12
# total energy = -68.71399363 eVC      2.47568      1.30750      0.97516       -17.994617     -0.000000     -4.935582
C      2.93432      3.92250      2.76016        17.994617     -0.000000     -4.935582
C      8.34432      3.92250      2.59484        17.994617     -0.000000      4.935582
C      7.88568      1.30750      0.80984       -17.994617     -0.000000      4.935582
N     -1.19948      1.30750     -0.22473        -4.932827     -0.000000      4.907405
N      6.60948      3.92250      1.56027         4.932827     -0.000000      4.907405
N      1.19948      3.92250      0.22473         4.932827     -0.000000     -4.907405
N      4.21052      1.30750      2.00973        -4.932827     -0.000000     -4.907405
O      3.26060      1.30750      1.17511        22.950514      0.000000      9.842906
O      2.14940      3.92250      2.96011       -22.950514      0.000000      9.842906
O      7.55940      3.92250      2.39489       -22.950514      0.000000     -9.842906
O      8.67060      1.30750      0.60989        22.950514     -0.000000     -9.842906
