12
# total energy = -76.48601396 eVC      2.38296      1.30750      0.86031        -0.147267      0.000000     -0.022897
C      3.02704      3.92250      2.64531         0.147267      0.000000     -0.022897
C      8.43704      3.92250      2.70969         0.147267     -0.000000      0.022897
C      7.79296      1.30750      0.92469        -0.147267     -0.000000      0.022897
N     -1.11537      1.30750     -0.12680        -0.003712      0.000000      0.024999
N      6.52537      3.92250      1.65820         0.003712     -0.000000      0.024999
N      1.11537      3.92250      0.12680         0.003712     -0.000000     -0.024999
N      4.29463      1.30750      1.91180        -0.003712      0.000000     -0.024999
O      3.23536      1.30750      1.39799         0.126395     -0.000000      0.054338
O      2.17464      3.92250      3.18299        -0.126395      0.000000      0.054338
O      7.58464      3.92250      2.17201        -0.126395      0.000000     -0.054338
O      8.64536      1.30750      0.38701         0.126395     -0.000000     -0.054338
