16
# total energy = -98.63384767 eVC      2.50211      0.75928      1.86981         0.653660      3.236579     -1.207230
C      2.83387      5.28928      1.17930        -0.653660      3.236579      1.207230
C      1.05521      8.30072      4.82960        -0.653660     -3.236579      1.207230
C      0.72345      3.77072      5.52011         0.653660     -3.236579     -1.207230
N     -0.05246      0.60079     -0.01318         1.079758      1.034612     -0.840346
N     -0.15220      1.84233      0.54005        -0.464985     -0.136742     -0.377664
N      1.83112      5.13079      3.36289        -1.079758      1.034612      0.840346
N      1.93086      6.37233      2.80966         0.464985     -0.136742      0.377664
N      0.05246      8.45921      0.01318        -1.079758     -1.034612      0.840346
N      0.15220      7.21767      6.45995         0.464985      0.136742      0.377664
N      1.72620      3.92921      3.33652         1.079758     -1.034612     -0.840346
N      1.62646      2.68767      3.88975        -0.464985      0.136742     -0.377664
O      2.82021      1.91127      1.29841        -1.506450     -1.048050      3.673978
O      2.51578      6.44127      1.75070         1.506450     -1.048050     -3.673978
O      0.73712      7.14873      5.40100         1.506450      1.048050     -3.673978
O      1.04155      2.61873      4.94870        -1.506450      1.048050      3.673978
