36
# total energy = -212.55137959 eVH      4.14682      2.32194      2.24774        -2.475881      1.597565      1.877650
H      4.17208      1.48381     -0.19987         1.847057      1.732843      2.583472
H      6.93396      1.00640      0.79718        -0.075354      0.178526     -6.678215
H      0.53334      0.67490      3.29935         2.061273     -0.863320      0.786117
H      6.41947      0.86080      4.26052         2.994960     -2.131957      2.022435
H      5.04866      1.61935      4.20819        -3.628137      1.433365      1.861535
H      4.14682      1.19406      9.42674        -2.475881     -1.597565      1.877650
H      4.17208      2.03219      6.97913         1.847057     -1.732843      2.583472
H      6.93396      2.50960      7.97618        -0.075354     -0.178526     -6.678215
H      0.53334      2.84110     10.47835         2.061273      0.863320      0.786117
H      6.41947      2.65520     11.43952         2.994960      2.131957      2.022435
H      5.04866      1.89665     11.38719        -3.628137     -1.433365      1.861535
C      5.85089      1.38521      2.44583        -2.490377      0.818975     -1.364299
C      5.85089      2.13079      9.62483        -2.490377     -0.818975     -1.364299
N      1.58169      3.42626      5.42755        -0.502688      0.311671      0.208070
N      1.44640      3.14125      6.78155        -0.074709      0.146411     -0.407149
N      2.70328      3.02501      4.83888         0.006079     -0.003546     -0.460043
N      4.79410      1.77432      1.80432        -2.288852     -0.040478     -2.169558
N      6.78534      1.03024      1.69471         4.033151     -1.760341      4.583937
N      5.81559      1.35491      3.72964         1.061169      0.549457     -0.558333
N      1.58169      0.08974     12.60655        -0.502688     -0.311671      0.208070
N      1.44640      0.37475     13.96055        -0.074709     -0.146411     -0.407149
N      2.70328      0.49099     12.01788         0.006079      0.003546     -0.460043
N      4.79410      1.74168      8.98332        -2.288852      0.040478     -2.169558
N      6.78534      2.48576      8.87371         4.033151      1.760341      4.583937
N      5.81559      2.16109     10.90864         1.061169     -0.549457     -0.558333
O      2.27579      2.61128      7.50312         0.972319     -0.624049      0.610836
O      0.34021     -0.01624      7.19384        -1.324177      0.480837      0.309812
O      3.65141      2.42717      5.38443         0.990061     -0.628255      0.484679
O      2.73147      3.28364      3.61819         0.006149      0.223092     -0.670221
O      4.84657      2.14574      0.48342        -1.112045     -1.643960     -3.020725
O      2.27579      0.90472      0.32412         0.972319      0.624049      0.610836
O      0.34021      0.01624      0.01484        -1.324177     -0.480837      0.309812
O      3.65141      1.08883     12.56343         0.990061      0.628255      0.484679
O      2.73147      0.23236     10.79719         0.006149     -0.223092     -0.670221
O      4.84657      1.37026      7.66242        -1.112045      1.643960     -3.020725
