16
# total energy = -96.45146052 eVC      2.50302      0.72627      1.86849         0.728823      3.322604     -1.381401
C      2.83296      5.25627      1.18062        -0.728823      3.322604      1.381401
C      1.05430      8.33373      4.83092        -0.728823     -3.322604      1.381401
C      0.72436      3.80373      5.51878         0.728823     -3.322604     -1.381401
N     -0.05461      0.66238      0.01558         2.125790    -10.240186     -3.151330
N     -0.13881      1.83137      0.50316        -1.531665      2.658491      2.813382
N      1.83327      5.19238      3.33412        -2.125790    -10.240186      3.151330
N      1.91747      6.36137      2.84655         1.531665      2.658491     -2.813382
N      0.05461      8.39762     -0.01558        -2.125790     10.240186      3.151330
N      0.13881      7.22863      6.49684         1.531665     -2.658491     -2.813382
N      1.72405      3.86762      3.36529         2.125790     10.240186     -3.151330
N      1.63985      2.69863      3.85286        -1.531665     -2.658491      2.813382
O      2.81740      1.90460      1.29895        -1.044470     -0.504422      2.755421
O      2.51859      6.43460      1.75016         1.044470     -0.504422     -2.755421
O      0.73993      7.15540      5.40046         1.044470      0.504422     -2.755421
O      1.03874      2.62540      4.94925        -1.044470      0.504422      2.755421
