56
# total energy = -351.62917515 eVH      5.14560      2.27013      4.08758         0.370205     -0.041064      0.281209
H      6.52208      1.99181      5.16356         1.396215      0.012765     -0.019228
H      3.08134      1.97703      4.89595         0.521414      0.122561     -0.135547
H      2.80037      1.31631      6.39508         0.314676     -0.188788      0.502231
H      5.23574      5.54588      1.53860        -0.370205     -0.041064     -0.281209
H      3.85927      5.26756      0.46262        -1.396215      0.012765      0.019228
H      0.37910      5.25278      0.73748        -0.521414      0.122561      0.135547
H      0.66008      4.59206     10.51244        -0.314676     -0.188788     -0.502231
H      1.77530      4.28137      7.17927        -0.370205      0.041064     -0.281209
H      0.39882      4.55969      6.10329        -1.396215     -0.012765      0.019228
H      3.83955      4.57447      6.37091        -0.521414     -0.122561      0.135547
H      4.12053      5.23519      4.87177        -0.314676      0.188788     -0.502231
H      1.68515      1.00562      9.72826         0.370205      0.041064      0.281209
H      3.06163      1.28394     10.80423         1.396215     -0.012765     -0.019228
H      6.54179      1.29872     10.52937         0.521414     -0.122561     -0.135547
H      6.26082      1.95944      0.75441         0.314676      0.188788      0.502231
C      5.30864      1.10564      7.17701         0.206691     -0.255957      0.770841
C      4.74995      1.57249      5.92747         4.244702     -0.731191      1.638764
C      5.07270      4.38139      9.72326        -0.206691     -0.255957     -0.770841
C      5.63139      4.84824     10.97281        -4.244702     -0.731191     -1.638764
C      1.61226      5.44586      4.08984        -0.206691      0.255957     -0.770841
C      2.17094      4.97901      5.33938        -4.244702      0.731191     -1.638764
C      1.84819      2.17011      1.54359         0.206691      0.255957      0.770841
C      1.28951      1.70326      0.29405         4.244702      0.731191      1.638764
N      6.67155      0.94159      7.41930         0.261938      0.176822     -0.284225
N      4.45476      0.83587      8.26682        -0.036440     -0.004348     -0.066453
N      5.55031      1.95295      4.98270        -0.362890      0.710036     -2.170082
N      3.52280      1.66745      5.77053        -6.973339      0.423890     -1.172452
N      3.70979      4.21734      9.48097        -0.261938      0.176822      0.284225
N      5.92658      4.11162      8.63346         0.036440     -0.004348      0.066453
N      4.83103      5.22870      0.64348         0.362890      0.710036      2.170082
N     -0.06235      4.94320     11.13699         6.973339      0.423890      1.172452
N      0.24934      5.60991      3.84755        -0.261938     -0.176822      0.284225
N      2.46613      5.71563      3.00004         0.036440      0.004348      0.066453
N      1.37058      4.59855      6.28416         0.362890     -0.710036      2.170082
N      3.39810      4.88405      5.49632         6.973339     -0.423890      1.172452
N      3.21110      2.33416      1.78588         0.261938     -0.176822     -0.284225
N      0.99431      2.43988      2.63339        -0.036440      0.004348     -0.066453
N      2.08987      1.32280     10.62337        -0.362890     -0.710036     -2.170082
N      0.06235      1.60830      0.13711        -6.973339     -0.423890     -1.172452
O      0.15775      0.37879      8.46605         0.085430     -0.179889      0.369461
O      0.56900      1.31887      6.53949         0.203689      0.072092     -0.113869
O      3.31586      0.37265      8.02810        -0.265301     -0.092232     -0.010487
O      4.82183      1.08727      9.43396         0.063634      0.036175      0.353935
O      3.30270      3.65454      8.44147        -0.085430     -0.179889     -0.369461
O      2.89144      4.59462     10.36803        -0.203689      0.072092      0.113869
O      0.14459      3.64840      8.87942         0.265301     -0.092232      0.010487
O      5.55951      4.36302      7.46632        -0.063634      0.036175     -0.353935
O      6.76315      6.17271      2.80080        -0.085430      0.179889     -0.369461
O      6.35189      5.23263      4.72736        -0.203689     -0.072092      0.113869
O      3.60504      6.17885      3.23875         0.265301      0.092232      0.010487
O      2.09906      5.46423      1.83289        -0.063634     -0.036175     -0.353935
O      3.61820      2.89696      2.82538         0.085430      0.179889      0.369461
O      4.02945      1.95688      0.89882         0.203689     -0.072092     -0.113869
O      6.77631      2.90310      2.38743        -0.265301      0.092232     -0.010487
O      1.36139      2.18848      3.80053         0.063634     -0.036175      0.353935
