40
# total energy = -224.81205963 eVH      6.12569      1.33327      6.13559        -0.010191      0.015206      0.017572
H      4.92134      3.03850      4.95728         0.051872      0.031992     -0.021316
H      5.81572      4.27039      3.97716        -0.019160     -0.008556      0.012753
H      5.83418      4.34564      5.78390         0.001028     -0.059474     -0.016897
H      6.12774      1.31901      3.68914         0.084895      0.057904      0.004987
H      4.41751      4.15813      1.78289         0.010191     -0.015206      0.017572
H      5.62186      2.45290      0.60458        -0.051872     -0.031992     -0.021316
H      4.72748      1.22101      8.32986         0.019160      0.008556      0.012753
H      4.70902      1.14576      1.43120        -0.001028      0.059474     -0.016897
H      4.41546      4.17239      8.04184        -0.084895     -0.057904      0.004987
H      2.61129      4.15813      1.78289        -0.010191     -0.015206      0.017572
H      1.40694      2.45290      0.60458         0.051872     -0.031992     -0.021316
H      2.30132      1.22101      8.32986        -0.019160      0.008556      0.012753
H      2.31978      1.14576      1.43120         0.001028      0.059474     -0.016897
H      2.61334      4.17239      8.04184         0.084895     -0.057904      0.004987
H      0.90311      1.33327      6.13559         0.010191      0.015206      0.017572
H      2.10746      3.03850      4.95728        -0.051872      0.031992     -0.021316
H      1.21308      4.27039      3.97716         0.019160     -0.008556      0.012753
H      1.19462      4.34564      5.78390        -0.001028     -0.059474     -0.016897
H      0.90106      1.31901      3.68914        -0.084895      0.057904      0.004987
H     -0.00000      2.61517      7.02028         0.000000      0.017878     -0.036106
H     -0.00000      2.61891      2.81194         0.000000     -0.044031      0.055303
H      3.51440      2.87623      2.66758         0.000000     -0.017878     -0.036106
H      3.51440      2.87249      7.16464         0.000000      0.044031      0.055303
C      5.80347      3.68878      4.90665         0.084609     -0.038865     -0.003886
C      4.73973      1.80262      0.55395        -0.084609      0.038865     -0.003886
C      2.28907      1.80262      0.55395         0.084609      0.038865     -0.003886
C      1.22533      3.68878      4.90665        -0.084609     -0.038865     -0.003886
C     -0.00000      4.78947      0.61462         0.000000     -0.078522     -0.087609
C     -0.00000      1.95473      6.14506         0.000000      0.006041     -0.052070
C     -0.00000      1.94594      3.68110         0.000000      0.042863      0.104423
C      3.51440      0.70193      4.96732         0.000000      0.078522     -0.087609
C      3.51440      3.53667      1.79236         0.000000     -0.006041     -0.052070
C      3.51440      3.54546     -0.67160         0.000000     -0.042863      0.104423
N     -0.00000      4.77148      1.81514         0.000000     -0.014636      0.049063
N     -0.00000      2.81515      4.91436         0.000000     -0.005343     -0.004689
N      3.51440      0.71992      6.16784         0.000000      0.014636      0.049063
N      3.51440      2.67625      0.56166         0.000000      0.005343     -0.004689
O     -0.00000      4.78553      8.08854         0.000000      0.029427     -0.014740
O      3.51440      0.70587      3.73584         0.000000     -0.029427     -0.014740
