36
# total energy = -220.38652079 eVH      0.72215      2.40403      2.49977         0.209464      0.128026     -0.188882
H      0.42367      3.57654      1.33295         0.605253      0.675562     -0.549511
H      4.58742      7.65703      1.12493         0.209464      0.128026     -0.188882
H      4.28894      8.82954     -0.04189         0.605253      0.675562     -0.549511
H      7.00840      2.40403     -1.10345        -0.209464      0.128026      0.188882
H      7.30687      3.57654      0.06337        -0.605253      0.675562      0.549511
H      3.14312      7.65703      0.27139        -0.209464      0.128026      0.188882
H      3.44160      8.82954      1.43821        -0.605253      0.675562      0.549511
H      7.00840      8.10197     -1.10345        -0.209464     -0.128026      0.188882
H      7.30687      6.92946      0.06337        -0.605253     -0.675562      0.549511
H      3.14312      2.84897      0.27139        -0.209464     -0.128026      0.188882
H      3.44160      1.67646      1.43821        -0.605253     -0.675562      0.549511
H      0.72215      8.10197      2.49977         0.209464     -0.128026     -0.188882
H      0.42367      6.92946      1.33295         0.605253     -0.675562     -0.549511
H      4.58742      2.84897      1.12493         0.209464     -0.128026     -0.188882
H      4.28894      1.67646     -0.04189         0.605253     -0.675562     -0.549511
C      2.16447      5.25300     -0.20006        -0.959930     -0.000000      0.689064
C      3.33633      5.25300     -1.02194         4.288750     -0.000000     -2.892446
C      6.02974      0.00000     -1.57490        -0.959930     -0.000000      0.689064
C      7.20160      0.00000     -2.39678         4.288750     -0.000000     -2.892446
C      5.56607      5.25300      1.59638         0.959930     -0.000000     -0.689064
C      4.39421      5.25300      2.41826        -4.288750     -0.000000      2.892446
C      1.70080      0.00000      2.97122         0.959930     -0.000000     -0.689064
C      0.52894      0.00000      3.79310        -4.288750     -0.000000      2.892446
N     -0.00000      3.02393      2.07300        -0.000000     -1.652472      0.000000
N      3.86527      8.27693      0.69816        -0.000000     -1.652472      0.000000
N     -0.00000      7.48207      2.07300        -0.000000      1.652472      0.000000
N      3.86527      2.22907      0.69816        -0.000000      1.652472      0.000000
O      1.69673      6.39449      0.13250         0.201054     -0.254841     -0.108753
O      5.56200      1.14149     -1.24234         0.201054     -0.254841     -0.108753
O      6.03381      6.39449      1.26381        -0.201054     -0.254841      0.108753
O      2.16854      1.14149      2.63865        -0.201054     -0.254841      0.108753
O      6.03381      4.11151      1.26381        -0.201054      0.254841      0.108753
O      2.16854      9.36451      2.63865        -0.201054      0.254841      0.108753
O      1.69673      4.11151      0.13250         0.201054      0.254841     -0.108753
O      5.56200      9.36451     -1.24234         0.201054      0.254841     -0.108753
