18
# total energy = -101.79868407 eVH      0.63806      4.23736      9.04586         0.014137     -0.011938     -0.015128
H      0.56695      1.24613      0.19002         0.012776      0.032903      0.051787
H      3.25917      0.50139      8.14095         0.039929     -0.009865      0.022396
H      3.17245      0.17657      0.71068        -0.039812     -0.000824      0.041072
H      1.86957      2.56915      6.99392        -0.011991      0.083790      0.049273
H      0.63806      0.44164      4.48986         0.014137      0.011938     -0.015128
H      0.56695      3.43287      4.74602         0.012776     -0.032903      0.051787
H      3.25917      4.17761      3.58495         0.039929      0.009865      0.022396
H      3.17245      4.50243      5.26668        -0.039812      0.000824      0.041072
H      1.86957      2.10985      2.43792        -0.011991     -0.083790      0.049273
C      1.89979      1.74494      6.24950        -0.031926      0.039199     -0.061718
C      1.89979      2.93406      1.69350        -0.031926     -0.039199     -0.061718
N      0.00271      0.38225     -0.00888        -0.025707      0.005847     -0.120423
N      0.00271      4.29675      4.54712        -0.025707     -0.005847     -0.120423
O      1.46214      1.98677      5.08253         0.005079     -0.031664      0.006338
O      2.37169      0.63379      6.64356         0.037516     -0.085221      0.026403
O      1.46214      2.69223      0.52653         0.005079      0.031664      0.006338
O      2.37169      4.04521      2.08756         0.037516      0.085221      0.026403
