16
# total energy = -88.25137270 eVC      2.72775      0.57636      1.47591        -0.719340      0.478089      1.518472
C      2.60823      5.10636      1.57320         0.719340      0.478089     -1.518472
C      0.82957      8.48364      5.22350         0.719340     -0.478089     -1.518472
C      0.94909      3.95364      5.12621        -0.719340     -0.478089      1.518472
N     -0.04745      0.64973      0.16144         0.263467     -3.195315     -0.848381
N     -0.01446      1.88337      0.21636        -0.150239      4.098690      0.544784
N      1.82612      5.17973      3.18827        -0.263467     -3.195315      0.848381
N      1.79312      6.41337      3.13335         0.150239      4.098690     -0.544784
N      0.04745      8.41027     -0.16144        -0.263467      3.195315      0.848381
N      0.01446      7.17663      6.78364         0.150239     -4.098690     -0.544784
N      1.73121      3.88027      3.51114         0.263467      3.195315     -0.848381
N      1.76420      2.64663      3.56606        -0.150239     -4.098690      0.544784
O      2.54207      1.60616      1.82559         0.659338      0.595372     -1.291128
O      2.79392      6.13616      1.22352        -0.659338      0.595372      1.291128
O      1.01526      7.45384      4.87382        -0.659338     -0.595372      1.291128
O      0.76341      2.92384      5.47589         0.659338     -0.595372     -1.291128
