38
# total energy = -218.48807699 eVH      3.52851      1.50626      2.11791         0.117736     -0.454555      0.128536
H      3.83320      2.85125      1.06747        -0.135211     -0.301564      0.233521
H      2.78318      2.99857      2.37256        -0.211989      0.449654      0.239157
H      2.35501      2.07322      1.00739        -0.231942     -0.232479      0.088873
H      3.18274     10.13233     -0.11130         0.564797      0.013958     -0.101736
H      4.48849      8.80274      2.11791        -0.117736      0.454555      0.128536
H      4.18380      7.45775      1.06747         0.135211      0.301564      0.233521
H      5.23382      7.31043      2.37256         0.211989     -0.449654      0.239157
H      5.66199      8.23578      1.00739         0.231942      0.232479      0.088873
H      4.83426      0.17667     -0.11130        -0.564797     -0.013958     -0.101736
H      0.47999      6.66076      1.61709        -0.117736     -0.454555     -0.128536
H      0.17530      8.00575      2.66753         0.135211     -0.301564     -0.233521
H      1.22532      8.15307      1.36244         0.211989      0.449654     -0.239157
H      1.65349      7.22772      2.72761         0.231942     -0.232479     -0.088873
H      0.82576      4.97783      0.11130        -0.564797      0.013958      0.101736
H      7.53701      3.64824      1.61709         0.117736      0.454555     -0.128536
H      7.84170      2.30325      2.66753        -0.135211      0.301564     -0.233521
H      6.79168      2.15593      1.36244        -0.211989     -0.449654     -0.239157
H      6.36351      3.08128      2.72761        -0.231942      0.232479     -0.088873
H      7.19124      5.33117      0.11130         0.564797     -0.013958      0.101736
C      0.74529      0.25070      0.25731         0.601298     -1.148454      0.292135
C      7.27171     10.05830      0.25731        -0.601298      1.148454      0.292135
C      3.26321      5.40520      3.47769        -0.601298     -1.148454     -0.292135
C      4.75379      4.90380      3.47769         0.601298      1.148454     -0.292135
N      3.11950      2.33700      1.65803         0.528128      0.402545     -0.831691
N      4.89750      7.97200      1.65803        -0.528128     -0.402545     -0.831691
N      0.88900      7.49150      2.07697        -0.528128      0.402545      0.831691
N      7.12800      2.81750      2.07697         0.528128     -0.402545      0.831691
O      1.64686      9.68703      0.53756        -0.569051      0.502712     -0.240746
O      0.97110      1.45822     -0.00164        -0.092125      0.632654     -0.216806
O      6.37014      0.62197      0.53756         0.569051     -0.502712     -0.240746
O      7.04590      8.85078     -0.00164         0.092125     -0.632654     -0.216806
O      2.36164      4.53253      3.19744         0.569051      0.502712      0.240746
O      3.03740      6.61272      0.00164         0.092125      0.632654      0.216806
O      5.65536      5.77647      3.19744        -0.569051     -0.502712      0.240746
O      4.97960      3.69628      0.00164        -0.092125     -0.632654      0.216806
O      4.00850      0.00000      3.06240        -0.000000      0.000000      0.199314
O     -0.00000      5.15450      0.67260        -0.000000      0.000000     -0.199314
