16
# total energy = -97.33085062 eVH      1.45317      4.28417      1.39832         0.079044      0.079044      0.071391
H      0.79774      3.62874     -0.08981        -0.014746     -0.014746     -0.058521
H      4.20883      1.37783      1.39832        -0.079044     -0.079044      0.071391
H      4.86426      2.03326     -0.08981         0.014746      0.014746     -0.058521
H      4.28417      4.20883      3.31768         0.079044     -0.079044     -0.071391
H      3.62874      4.86426      0.08981        -0.014746      0.014746      0.058521
H      1.37783      1.45317      3.31768        -0.079044      0.079044     -0.071391
H      2.03326      0.79774      0.08981         0.014746     -0.014746      0.058521
C     -0.00000      2.83100      1.63971         0.000000      0.000000     -0.220085
C      2.83100      0.00000      3.07629        -0.000000      0.000000      0.220085
N      0.81540      3.64640      0.92808        -0.155596     -0.155596      0.007539
N      4.84660      2.01560      0.92808         0.155596      0.155596      0.007539
N      3.64640      4.84660      3.78792        -0.155596      0.155596     -0.007539
N      2.01560      0.81540      3.78792         0.155596     -0.155596     -0.007539
O     -0.00000      2.83100      2.91343         0.000000      0.000000     -0.030865
O      2.83100      0.00000      1.80257         0.000000      0.000000      0.030865
