40
# total energy = -224.81815737 eVH      6.12496      1.33722      6.13810        -0.006151      0.007894     -0.000639
H      4.92397      3.03956      4.95656         0.027153     -0.010975     -0.026016
H      5.81179      4.27383      3.98105         0.018780     -0.009433     -0.017328
H      5.83745      4.33633      5.78571         0.009452     -0.018265      0.011934
H      6.13197      1.32129      3.69130        -0.013449     -0.000410      0.013197
H      4.41824      4.15418      1.78540         0.006151     -0.007894     -0.000639
H      5.61923      2.45184      0.60386        -0.027153      0.010975     -0.026016
H      4.73141      1.21757      8.33375        -0.018780      0.009433     -0.017328
H      4.70575      1.15507      1.43301        -0.009452      0.018265      0.011934
H      4.41123      4.17011      8.04400         0.013449      0.000410      0.013197
H      2.61056      4.15418      1.78540        -0.006151     -0.007894     -0.000639
H      1.40957      2.45184      0.60386         0.027153      0.010975     -0.026016
H      2.29739      1.21757      8.33375         0.018780      0.009433     -0.017328
H      2.32305      1.15507      1.43301         0.009452      0.018265      0.011934
H      2.61757      4.17011      8.04400        -0.013449      0.000410      0.013197
H      0.90384      1.33722      6.13810         0.006151      0.007894     -0.000639
H      2.10483      3.03956      4.95656        -0.027153     -0.010975     -0.026016
H      1.21701      4.27383      3.98105        -0.018780     -0.009433     -0.017328
H      1.19135      4.33633      5.78571        -0.009452     -0.018265      0.011934
H      0.89683      1.32129      3.69130         0.013449     -0.000410      0.013197
H     -0.00000      2.62197      7.01326         0.000000      0.023982     -0.014441
H     -0.00000      2.61375      2.81321         0.000000      0.023723      0.006194
H      3.51440      2.86943      2.66056         0.000000     -0.023982     -0.014441
H      3.51440      2.87765      7.16591         0.000000     -0.023723      0.006194
C      5.80766      3.68567      4.90542        -0.035779      0.026384      0.026159
C      4.73554      1.80573      0.55272         0.035779     -0.026384      0.026159
C      2.29326      1.80573      0.55272        -0.035779     -0.026384      0.026159
C      1.22114      3.68567      4.90542         0.035779      0.026384      0.026159
C     -0.00000      4.78243      0.61167         0.000000     -0.023749     -0.045521
C     -0.00000      1.95766      6.14152         0.000000     -0.029182      0.038429
C     -0.00000      1.94850      3.68519         0.000000     -0.030554     -0.014238
C      3.51440      0.70897      4.96437         0.000000      0.023749     -0.045521
C      3.51440      3.53374      1.78882         0.000000      0.029182      0.038429
C      3.51440      3.54290     -0.66751         0.000000      0.030554     -0.014238
N     -0.00000      4.76553      1.81285         0.000000     -0.034972     -0.014396
N     -0.00000      2.81388      4.91120         0.000000      0.034292      0.022864
N      3.51440      0.72587      6.16555         0.000000      0.034972     -0.014396
N      3.51440      2.67752      0.55850         0.000000     -0.034292      0.022864
O     -0.00000      4.78666      8.08530         0.000000      0.005818      0.006492
O      3.51440      0.70474      3.73260         0.000000     -0.005818      0.006492
