36
# total energy = -216.66742639 eVH      4.03025      2.37145      2.26729        -0.092897      0.047231      0.150897
H      4.22010      1.53988     -0.05196         0.015049      0.073229     -0.011742
H      6.89134      0.97749      0.71207        -0.089456     -0.076270     -0.073808
H      0.70039      0.61346      3.31384        -0.091319      0.045221     -0.042351
H      6.50133      0.82955      4.25884        -0.088028      0.091025      0.020347
H      4.96095      1.68019      4.24745         0.124515      0.006714     -0.005181
H      4.03025      1.14455      9.44629        -0.092897     -0.047231      0.150897
H      4.22010      1.97612      7.12704         0.015049     -0.073229     -0.011742
H      6.89134      2.53851      7.89107        -0.089456      0.076270     -0.073808
H      0.70039      2.90254     10.49284        -0.091319     -0.045221     -0.042351
H      6.50133      2.68645     11.43784        -0.088028     -0.091025      0.020347
H      4.96095      1.83581     11.42645         0.124515     -0.006714     -0.005181
C      5.82281      1.37800      2.40738        -0.067428      0.017969      0.272395
C      5.82281      2.13800      9.58638        -0.067428     -0.017969      0.272395
N      1.58866      3.44444      5.43582        -0.002362      0.034669      0.055307
N      1.43232      3.14281      6.78909        -0.085484      0.031496     -0.006893
N      2.71762      3.01705      4.81969         0.122364     -0.072895     -0.024483
N      4.70763      1.79205      1.76505         0.158186     -0.018552     -0.160287
N      6.88888      0.98052      1.72995         0.196700     -0.109815     -0.066166
N      5.79414      1.35802      3.74373         0.066280     -0.085012      0.056878
N      1.58866      0.07156     12.61482        -0.002362     -0.034669      0.055307
N      1.43232      0.37319     13.96809        -0.085484     -0.031496     -0.006893
N      2.71762      0.49895     11.99869         0.122364      0.072895     -0.024483
N      4.70763      1.72395      8.94405         0.158186      0.018552     -0.160287
N      6.88888      2.53548      8.90895         0.196700      0.109815     -0.066166
N      5.79414      2.15798     10.92273         0.066280      0.085012      0.056878
O      2.26695      2.59215      7.51658        -0.008356     -0.046997     -0.013021
O      0.30212     -0.00234      7.19094         0.064222     -0.015017     -0.055740
O      3.66812      2.39632      5.35935        -0.171580      0.028044     -0.061434
O      2.72559      3.30148      3.59194        -0.023677      0.026979      0.011133
O      4.85784      2.13189      0.42155        -0.026728     -0.014241     -0.045853
O      2.26695      0.92385      0.33758        -0.008356      0.046997     -0.013021
O      0.30212      0.00234      0.01194         0.064222      0.015017     -0.055740
O      3.66812      1.11968     12.53835        -0.171580     -0.028044     -0.061434
O      2.72559      0.21452     10.77094        -0.023677     -0.026979      0.011133
O      4.85784      1.38411      7.60055        -0.026728      0.014241     -0.045853
