4
# total energy = -20.85270276 eVPd      0.00000      0.00000      0.00000        -0.000000      0.000000      0.000000
Pd      0.00000      1.99000      1.99000         0.000000      0.000000      0.000000
Pd      1.99000      0.00000      1.99000         0.000000      0.000000     -0.000000
Pd      1.99000      1.99000      0.00000        -0.000000     -0.000000      0.000000
