16
# total energy = -97.34601790 eVH      1.44625      4.27725      1.37887         0.053891      0.053891     -0.035510
H      0.80010      3.63110     -0.12917         0.010970      0.010970     -0.073424
H      4.21575      1.38475      1.37887        -0.053891     -0.053891     -0.035510
H      4.86190      2.03090     -0.12917        -0.010970     -0.010970     -0.073424
H      4.27725      4.21575      3.33713         0.053891     -0.053891      0.035510
H      3.63110      4.86190      0.12917         0.010970     -0.010970      0.073424
H      1.38475      1.44625      3.33713        -0.053891      0.053891      0.035510
H      2.03090      0.80010      0.12917        -0.010970      0.010970      0.073424
C     -0.00000      2.83100      1.59501         0.000000      0.000000      0.142618
C      2.83100      0.00000      3.12099         0.000000      0.000000     -0.142618
N      0.81426      3.64526      0.88850        -0.005253     -0.005253      0.064601
N      4.84774      2.01674      0.88850         0.005253      0.005253      0.064601
N      3.64526      4.84774      3.82750        -0.005253      0.005253     -0.064601
N      2.01674      0.81426      3.82750         0.005253     -0.005253     -0.064601
O     -0.00000      2.83100      2.87238         0.000000      0.000000     -0.159606
O      2.83100      0.00000      1.84362         0.000000      0.000000      0.159606
