18
# total energy = -100.96572317 eVH      0.61161      4.25347      9.01906         0.849872     -1.091459     -0.082012
H      0.55200      1.20132      0.20326         0.515492      0.831420      0.117361
H      3.26852      0.47810      8.18541        -0.768567      0.324692     -1.146182
H      3.19724      0.17096      0.69955        -0.824094     -0.215310      1.037177
H      1.87606      2.54998      6.97210         0.023187     -0.692656     -0.621234
H      0.61161      0.42553      4.46306         0.849872      1.091459     -0.082012
H      0.55200      3.47768      4.75926         0.515492     -0.831420      0.117361
H      3.26852      4.20090      3.62941        -0.768567     -0.324692     -1.146182
H      3.19724      4.50804      5.25555        -0.824094      0.215310      1.037177
H      1.87606      2.12902      2.41610         0.023187      0.692656     -0.621234
C      1.90688      1.66869      6.19398        -0.236507      4.379828      3.681642
C      1.90688      3.01031      1.63798        -0.236507     -4.379828      3.681642
N     -0.00289      0.36745     -0.00226         0.257185      0.270095      0.074787
N     -0.00289      4.31155      4.55374         0.257185     -0.270095      0.074787
O      1.51027      2.01421      5.08228        -0.646942     -0.652797     -2.771705
O      2.32285      0.62731      6.69477         0.830375     -2.967549     -0.289834
O      1.51027      2.66479      0.52628        -0.646942      0.652797     -2.771705
O      2.32285      4.05169      2.13877         0.830375      2.967549     -0.289834
