12
# total energy = -76.47774235 eVC      2.38936      1.30750      0.84429         0.057089     -0.000000      0.139087
C      3.02064      3.92250      2.62929        -0.057089      0.000000      0.139087
C      8.43064      3.92250      2.72571        -0.057089      0.000000     -0.139087
C      7.79936      1.30750      0.94071         0.057089     -0.000000     -0.139087
N     -1.11259      1.30750     -0.12956        -0.229488     -0.000000      0.106458
N      6.52259      3.92250      1.65544         0.229488      0.000000      0.106458
N      1.11259      3.92250      0.12956         0.229488      0.000000     -0.106458
N      4.29741      1.30750      1.91456        -0.229488     -0.000000     -0.106458
O      3.23082      1.30750      1.40985         0.153969      0.000000     -0.026240
O      2.17918      3.92250      3.19485        -0.153969     -0.000000     -0.026240
O      7.58918      3.92250      2.16015        -0.153969     -0.000000      0.026240
O      8.64082      1.30750      0.37515         0.153969      0.000000      0.026240
