12
# total energy = -40.86638981 eVC      1.90588      1.30750      0.81774        -0.365961     -0.000000     -0.184614
C      3.50412      3.92250      2.60274         0.365961     -0.000000     -0.184614
C      8.91412      3.92250      2.75226         0.365961     -0.000000      0.184614
C      7.31588      1.30750      0.96726        -0.365961     -0.000000      0.184614
N      0.56218      1.30750      0.34313        -1.084008      0.000000     -0.466384
N      4.84782      3.92250      2.12813         1.084008      0.000000     -0.466384
N     10.25782      3.92250      3.22687         1.084008     -0.000000      0.466384
N      5.97218      1.30750      1.44187        -1.084008     -0.000000      0.466384
O      2.94362      1.30750      1.20423         0.802189     -0.000000      0.229395
O      2.46638      3.92250      2.98923        -0.802189     -0.000000      0.229395
O      7.87638      3.92250      2.36577        -0.802189      0.000000     -0.229395
O      8.35362      1.30750      0.58077         0.802189      0.000000     -0.229395
