40
# total energy = -224.76203023 eVH      6.12699      1.31167      6.12833        -0.067810     -0.040696      0.010587
H      4.92828      3.04571      4.94995        -0.043664     -0.030839     -0.018858
H      5.84366      4.23579      3.95015        -0.035113      0.084165     -0.049810
H      5.81841      4.37454      5.74924         0.045424     -0.020435      0.077280
H      6.13242      1.34316      3.69805        -0.022385     -0.013437     -0.005934
H      4.41621      4.17973      1.77563         0.067810      0.040696      0.010587
H      5.61492      2.44569      0.59725         0.043664      0.030839     -0.018858
H      4.69954      1.25561      8.30285         0.035113     -0.084165     -0.049810
H      4.72479      1.11686      1.39654        -0.045424      0.020435      0.077280
H      4.41078      4.14824      8.05075         0.022385      0.013437     -0.005934
H      2.61259      4.17973      1.77563        -0.067810      0.040696      0.010587
H      1.41388      2.44569      0.59725        -0.043664      0.030839     -0.018858
H      2.32926      1.25561      8.30285        -0.035113     -0.084165     -0.049810
H      2.30401      1.11686      1.39654         0.045424      0.020435      0.077280
H      2.61802      4.14824      8.05075        -0.022385      0.013437     -0.005934
H      0.90181      1.31167      6.12833         0.067810     -0.040696      0.010587
H      2.10052      3.04571      4.94995         0.043664     -0.030839     -0.018858
H      1.18514      4.23579      3.95015         0.035113      0.084165     -0.049810
H      1.21039      4.37454      5.74924        -0.045424     -0.020435      0.077280
H      0.89638      1.34316      3.69805         0.022385     -0.013437     -0.005934
H     -0.00000      2.55574      7.04422         0.000000      0.222680      0.143221
H     -0.00000      2.65858      2.84839         0.000000     -0.058572     -0.003737
H      3.51440      2.93566      2.69152         0.000000     -0.222680      0.143221
H      3.51440      2.83282      7.20109         0.000000      0.058572     -0.003737
C      5.81102      3.68961      4.89698        -0.012064     -0.072837      0.172341
C      4.73218      1.80179      0.54428         0.012064      0.072837      0.172341
C      2.29662      1.80179      0.54428        -0.012064      0.072837      0.172341
C      1.21778      3.68961      4.89698         0.012064     -0.072837      0.172341
C     -0.00000      4.80411      0.62879         0.000000     -0.016404     -0.782815
C     -0.00000      1.93000      6.15373         0.000000      0.051502     -0.164775
C     -0.00000      1.97058      3.70433         0.000000     -0.152664     -0.091680
C      3.51440      0.68729      4.98149         0.000000      0.016404     -0.782815
C      3.51440      3.56140      1.80103         0.000000     -0.051502     -0.164775
C      3.51440      3.52082     -0.64837         0.000000      0.152664     -0.091680
N     -0.00000      4.80879      1.82597         0.000000     -0.064262      0.347701
N     -0.00000      2.81324      4.94272         0.000000      0.144105     -0.197066
N      3.51440      0.68261      6.17867         0.000000      0.064262      0.347701
N      3.51440      2.67816      0.59002         0.000000     -0.144105     -0.197066
O     -0.00000      4.79197      8.09694         0.000000     -0.012566      0.377940
O      3.51440      0.69943      3.74424         0.000000      0.012566      0.377940
