56
# total energy = -353.03868730 eVH      5.15015      2.28210      4.06749         0.391624     -0.106811      0.453052
H      6.57222      1.99428      5.14240        -0.359761     -0.090414     -0.195401
H      3.08652      1.99539      4.85541        -0.068716     -0.034457      0.153449
H      2.78039      1.29185      6.43991         0.004442     -0.052988      0.009024
H      5.23119      5.55785      1.55868        -0.391624     -0.106811     -0.453052
H      3.80912      5.27003      0.48378         0.359761     -0.090414      0.195401
H      0.37393      5.27114      0.77802         0.068716     -0.034457     -0.153449
H      0.68006      4.56760     10.46761        -0.004442     -0.052988     -0.009024
H      1.77075      4.26940      7.19936        -0.391624      0.106811     -0.453052
H      0.34867      4.55722      6.12445         0.359761      0.090414      0.195401
H      3.83438      4.55611      6.41144         0.068716      0.034457     -0.153449
H      4.14051      5.25965      4.82694        -0.004442      0.052988     -0.009024
H      1.68970      0.99365      9.70817         0.391624      0.106811      0.453052
H      3.11178      1.28147     10.78308        -0.359761      0.090414     -0.195401
H      6.54697      1.28036     10.48884        -0.068716      0.034457      0.153449
H      6.24084      1.98390      0.79924         0.004442      0.052988      0.009024
C      5.32037      1.09886      7.20028        -0.285578      0.162903     -0.448327
C      4.75408      1.57367      5.92234        -0.154252     -0.463858      1.256400
C      5.06097      4.37461      9.70000         0.285578      0.162903      0.448327
C      5.62726      4.84942     10.97793         0.154252     -0.463858     -1.256400
C      1.60053      5.45264      4.06657         0.285578     -0.162903      0.448327
C      2.16681      4.97783      5.34451         0.154252      0.463858     -1.256400
C      1.85992      2.17689      1.56685        -0.285578     -0.162903     -0.448327
C      1.29364      1.70208      0.28892        -0.154252      0.463858      1.256400
N      6.69338      0.94252      7.42375        -0.357383      0.067670     -0.022721
N      4.44958      0.83182      8.28278         0.048973     -0.051409     -0.467893
N      5.55773      1.95734      4.96583         0.281197      0.526735     -1.246166
N      3.43700      1.67150      5.76186         0.022987      0.098844     -0.368498
N      3.68797      4.21827      9.47653         0.357383      0.067670      0.022721
N      5.93176      4.10757      8.61749        -0.048973     -0.051409      0.467893
N      4.82362      5.23309      0.66034        -0.281197      0.526735      1.246166
N      0.02345      4.94725     11.14567        -0.022987      0.098844      0.368498
N      0.22752      5.60898      3.84310         0.357383     -0.067670      0.022721
N      2.47131      5.71968      2.98407        -0.048973      0.051409      0.467893
N      1.36317      4.59416      6.30102        -0.281197     -0.526735      1.246166
N      3.48390      4.88000      5.50499        -0.022987     -0.098844      0.368498
N      3.23293      2.33323      1.79032        -0.357383     -0.067670     -0.022721
N      0.98914      2.44393      2.64936         0.048973      0.051409     -0.467893
N      2.09728      1.31841     10.60651         0.281197     -0.526735     -1.246166
N     -0.02345      1.60425      0.12843         0.022987     -0.098844     -0.368498
O      0.16772      0.37332      8.47727         0.275131     -0.025983      0.103724
O      0.57860      1.32241      6.53540         0.218675     -0.025959      0.094851
O      3.30660      0.37091      8.02981         0.051233      0.058942      0.155161
O      4.81872      1.08648      9.44502        -0.061816     -0.017743      0.470234
O      3.29272      3.64907      8.43025        -0.275131     -0.025983     -0.103724
O      2.88184      4.59816     10.37212        -0.218675     -0.025959     -0.094851
O      0.15385      3.64666      8.87772        -0.051233      0.058942     -0.155161
O      5.56262      4.36223      7.45526         0.061816     -0.017743     -0.470234
O      6.75317      6.17818      2.78958        -0.275131      0.025983     -0.103724
O      6.34229      5.22909      4.73145        -0.218675      0.025959     -0.094851
O      3.61430      6.18059      3.23704        -0.051233     -0.058942     -0.155161
O      2.10218      5.46502      1.82183         0.061816      0.017743     -0.470234
O      3.62817      2.90243      2.83660         0.275131      0.025983      0.103724
O      4.03905      1.95334      0.89473         0.218675      0.025959      0.094851
O      6.76705      2.90484      2.38913         0.051233     -0.058942      0.155161
O      1.35827      2.18927      3.81160        -0.061816      0.017743      0.470234
