16
# total energy = -97.34361471 eVH      1.44520      4.27620      1.38592         0.058883      0.058883     -0.050355
H      0.79838      3.62938     -0.12281         0.013407      0.013407     -0.036323
H      4.21680      1.38580      1.38592        -0.058883     -0.058883     -0.050355
H      4.86362      2.03262     -0.12281        -0.013407     -0.013407     -0.036323
H      4.27620      4.21680      3.33008         0.058883     -0.058883      0.050355
H      3.62938      4.86362      0.12281         0.013407     -0.013407      0.036323
H      1.38580      1.44520      3.33008        -0.058883      0.058883      0.050355
H      2.03262      0.79838      0.12281        -0.013407      0.013407      0.036323
C     -0.00000      2.83100      1.60376         0.000000     -0.000000      0.010027
C      2.83100      0.00000      3.11224         0.000000     -0.000000     -0.010027
N      0.81331      3.64431      0.89565         0.018966      0.018966      0.041133
N      4.84869      2.01769      0.89565        -0.018966     -0.018966      0.041133
N      3.64431      4.84869      3.82035         0.018966     -0.018966     -0.041133
N      2.01769      0.81331      3.82035        -0.018966      0.018966     -0.041133
O     -0.00000      2.83100      2.87894         0.000000     -0.000000     -0.052737
O      2.83100      0.00000      1.83706         0.000000     -0.000000      0.052737
