18
# total energy = -101.79250337 eVH      0.63850      4.22981      9.04013        -0.033453      0.035015     -0.049100
H      0.57098      1.23421      0.19187        -0.025923      0.016687      0.039059
H      3.24798      0.50224      8.15224         0.027999     -0.044209     -0.048317
H      3.17427      0.16235      0.71841         0.006582      0.063228     -0.012882
H      1.87397      2.56263      6.98784        -0.010387      0.030015      0.010216
H      0.63850      0.44919      4.48413        -0.033453     -0.035015     -0.049100
H      0.57098      3.44479      4.74787        -0.025923     -0.016687      0.039059
H      3.24798      4.17676      3.59624         0.027999      0.044209     -0.048317
H      3.17427      4.51665      5.27441         0.006582     -0.063228     -0.012882
H      1.87397      2.11637      2.43184        -0.010387     -0.030015      0.010216
C      1.90113      1.73438      6.24478         0.013041     -0.024582      0.024292
C      1.90113      2.94462      1.68878         0.013041      0.024582      0.024292
N      0.00040      0.37466     -0.00718         0.035571     -0.024023      0.048811
N      0.00040      4.30434      4.54882         0.035571      0.024023      0.048811
O      1.49181      1.98118      5.06919        -0.043213      0.003001      0.006454
O      2.34348      0.61202      6.65087         0.029781      0.053873     -0.018532
O      1.49181      2.69782      0.51319        -0.043213     -0.003001      0.006454
O      2.34348      4.06698      2.09487         0.029781     -0.053873     -0.018532
