40
# total energy = -224.50260572 eVH      6.12488      1.28589      6.11644         0.163239      0.234489      0.127071
H      4.92072      3.03598      4.92783         0.009702      0.144855      0.123051
H      5.85418      4.21054      3.93091        -0.135952      0.302253     -0.107240
H      5.83684      4.38976      5.74428        -0.158219     -0.155328     -0.125768
H      6.11259      1.37531      3.72263        -0.195316     -0.507266     -0.169400
H      4.41832      4.20551      1.76374        -0.163239     -0.234489      0.127071
H      5.62248      2.45542      0.57513        -0.009702     -0.144855      0.123051
H      4.68902      1.28086      8.28361         0.135952     -0.302253     -0.107240
H      4.70636      1.10164      1.39158         0.158219      0.155328     -0.125768
H      4.43061      4.11609      8.07533         0.195316      0.507266     -0.169400
H      2.61048      4.20551      1.76374         0.163239     -0.234489      0.127071
H      1.40632      2.45542      0.57513         0.009702     -0.144855      0.123051
H      2.33978      1.28086      8.28361        -0.135952     -0.302253     -0.107240
H      2.32244      1.10164      1.39158        -0.158219      0.155328     -0.125768
H      2.59819      4.11609      8.07533        -0.195316      0.507266     -0.169400
H      0.90392      1.28589      6.11644        -0.163239      0.234489      0.127071
H      2.10808      3.03598      4.92783        -0.009702      0.144855      0.123051
H      1.17462      4.21054      3.93091         0.135952      0.302253     -0.107240
H      1.19196      4.38976      5.74428         0.158219     -0.155328     -0.125768
H      0.91621      1.37531      3.72263         0.195316     -0.507266     -0.169400
H     -0.00000      2.54994      7.07030         0.000000     -0.066644     -0.226763
H     -0.00000      2.70401      2.87871         0.000000     -0.814738      0.207539
H      3.51440      2.94146      2.71760         0.000000      0.066644     -0.226763
H      3.51440      2.78739      7.23141         0.000000      0.814738      0.207539
C      5.79544      3.69797      4.89075         0.573880     -0.488644      0.245455
C      4.74776      1.79343      0.53805        -0.573880      0.488644      0.245455
C      2.28104      1.79343      0.53805         0.573880      0.488644      0.245455
C      1.23336      3.69797      4.89075        -0.573880     -0.488644      0.245455
C     -0.00000      4.81639      0.62388         0.000000     -0.085572      1.366632
C     -0.00000      1.91942      6.16740         0.000000      0.094099     -0.431418
C     -0.00000      1.94737      3.70975         0.000000      1.660271     -0.316161
C      3.51440      0.67501      4.97658         0.000000      0.085572      1.366632
C      3.51440      3.57198      1.81470         0.000000     -0.094099     -0.431418
C      3.51440      3.54403     -0.64295         0.000000     -1.660271     -0.316161
N     -0.00000      4.82176      1.85008         0.000000     -0.063182     -2.147885
N     -0.00000      2.81163      4.93495         0.000000      0.094210      0.637724
N      3.51440      0.66964      6.20278         0.000000      0.063182     -2.147885
N      3.51440      2.67977      0.58225         0.000000     -0.094210      0.637724
O     -0.00000      4.79292      8.08970         0.000000      0.013930      0.723997
O      3.51440      0.69848      3.73700         0.000000     -0.013930      0.723997
