16
# total energy = -97.56770288 eVC      2.50235      0.73605      1.86960         0.697540      3.283320     -1.307339
C      2.83364      5.26605      1.17951        -0.697540      3.283320      1.307339
C      1.05498      8.32395      4.82980        -0.697540     -3.283320      1.307339
C      0.72369      3.79395      5.51990         0.697540     -3.283320     -1.307339
N     -0.05449      0.64040      0.00604         1.854426     -6.898585     -2.271481
N     -0.14336      1.83529      0.51650        -1.198943      1.509195      1.703438
N      1.83315      5.17040      3.34367        -1.854426     -6.898585      2.271481
N      1.92202      6.36529      2.83321         1.198943      1.509195     -1.703438
N      0.05449      8.41960     -0.00604        -1.854426      6.898585      2.271481
N      0.14336      7.22471      6.48350         1.198943     -1.509195     -1.703438
N      1.72417      3.88960      3.35574         1.854426      6.898585     -2.271481
N      1.63530      2.69471      3.86620        -1.198943     -1.509195      1.703438
O      2.81935      1.90744      1.29647        -1.162032     -0.695914      3.008284
O      2.51663      6.43744      1.75264         1.162032     -0.695914     -3.008284
O      0.73797      7.15256      5.40294         1.162032      0.695914     -3.008284
O      1.04069      2.62256      4.94677        -1.162032      0.695914      3.008284
