18
# total energy = -101.79209660 eVH      0.63850      4.22912      9.03917        -0.042452      0.048229     -0.044943
H      0.57110      1.23318      0.19243        -0.024380      0.021995      0.034635
H      3.24742      0.50189      8.15315         0.018636     -0.040017     -0.061097
H      3.17446      0.16157      0.71909         0.007253      0.064021     -0.017756
H      1.87428      2.56199      6.98707        -0.010515      0.043404      0.024562
H      0.63850      0.44988      4.48317        -0.042452     -0.048229     -0.044943
H      0.57110      3.44582      4.74843        -0.024380     -0.021995      0.034635
H      3.24742      4.17711      3.59715         0.018636      0.040017     -0.061097
H      3.17446      4.51743      5.27509         0.007253     -0.064021     -0.017756
H      1.87428      2.11701      2.43107        -0.010515     -0.043404      0.024562
C      1.90120      1.73394      6.24477         0.019354     -0.054978      0.014440
C      1.90120      2.94506      1.68877         0.019354      0.054978      0.014440
N      0.00009      0.37429     -0.00707         0.052762     -0.045248      0.067003
N      0.00009      4.30471      4.54893         0.052762      0.045248      0.067003
O      1.49450      1.98014      5.06864        -0.061291      0.027921     -0.019269
O      2.34099      0.61064      6.65089         0.040632      0.048103      0.002426
O      1.49450      2.69886      0.51264        -0.061291     -0.027921     -0.019269
O      2.34099      4.06836      2.09489         0.040632     -0.048103      0.002426
