40
# total energy = -62.24089265 eVH      5.35756      0.61917      3.96308        -0.573584     -0.492867     -0.454305
H      5.05526      0.88244      1.52255        -0.215387     -0.954340      1.066903
H      7.13894      2.96838      3.96308         0.573584      0.492867     -0.454305
H      7.44124      2.70511      1.52255         0.215387      0.954340      1.066903
H      2.97344      4.20672      1.49912         0.573584     -0.492867      0.454305
H      3.27574      4.46999      3.93965         0.215387     -0.954340     -1.066903
H      1.19206      6.55593      1.49912        -0.573584      0.492867      0.454305
H      0.88976      6.29266      3.93965        -0.215387      0.954340     -1.066903
H      2.97344      6.55593      1.49912         0.573584      0.492867      0.454305
H      3.27574      6.29266      3.93965         0.215387      0.954340     -1.066903
H      1.19206      4.20672      1.49912        -0.573584     -0.492867      0.454305
H      0.88976      4.46999      3.93965        -0.215387     -0.954340     -1.066903
H      5.35756      2.96838      3.96308        -0.573584      0.492867     -0.454305
H      5.05526      2.70511      1.52255        -0.215387      0.954340      1.066903
H      7.13894      0.61917      3.96308         0.573584     -0.492867     -0.454305
H      7.44124      0.88244      1.52255         0.215387     -0.954340      1.066903
H      6.24825      6.85245      5.26191        -0.000000     -0.632591     -0.090601
H      6.24825      3.91020      5.26191        -0.000000      0.632591     -0.090601
H      2.08275      3.26490      0.20029        -0.000000     -0.632591      0.090601
H      2.08275      0.32265      0.20029        -0.000000      0.632591      0.090601
H      4.13547      1.79377      0.22791         0.356875     -0.000000      1.584646
H      0.03003      1.79377      0.22791        -0.356875     -0.000000      1.584646
H      4.19553      5.38132      5.23429        -0.356875     -0.000000     -1.584646
H     -0.03003      5.38132      5.23429         0.356875     -0.000000     -1.584646
C      6.24825      0.46197      4.52059        -0.000000     -1.013860      0.339993
C      6.24825      3.12558      4.52059        -0.000000      1.013860      0.339993
C      2.08275      4.04952      0.94161        -0.000000     -1.013860     -0.339993
C      2.08275      6.71313      0.94161        -0.000000      1.013860     -0.339993
C      4.96132      1.79377      0.99220        -1.083968     -0.000000     -1.725819
C      7.53518      1.79377      0.99220         1.083968     -0.000000     -1.725819
C      3.36968      5.38132      4.47000         1.083968     -0.000000      1.725819
C      0.79582      5.38132      4.47000        -1.083968     -0.000000      1.725819
N      6.24825      1.79377      0.03420        -0.000000     -0.000000      0.444003
N      2.08275      5.38132      5.42800        -0.000000     -0.000000     -0.444003
N      2.08275      1.79377      2.15371        -0.000000     -0.000000     -1.098856
N      6.24825      5.38132      3.30849        -0.000000     -0.000000      1.098856
O      3.78094      1.79377      3.92034        -1.310262     -0.000000     -0.819961
O      0.38456      1.79377      3.92034         1.310262     -0.000000     -0.819961
O      4.55006      5.38132      1.54186         1.310262     -0.000000      0.819961
O      7.94644      5.38132      1.54186        -1.310262     -0.000000      0.819961
