16
# total energy = -84.41373942 eVC      2.82638      0.56877      1.32415        -0.783776     -0.227763      1.232849
C      2.50961      5.09877      1.72496         0.783776     -0.227763     -1.232849
C      0.73095      8.49123      5.37525         0.783776      0.227763     -1.232849
C      1.04772      3.96123      4.97445        -0.783776      0.227763      1.232849
N     -0.28902      0.70308      0.15978         2.984367     -3.799860     -0.508408
N      0.05502      1.94409      0.28292        -0.621771      1.048707     -0.329178
N      2.06768      5.23308      3.18993        -2.984367     -3.799860      0.508408
N      1.72364      6.47409      3.06678         0.621771      1.048707      0.329178
N      0.28902      8.35692     -0.15978        -2.984367      3.799860      0.508408
N     -0.05502      7.11591      6.71708         0.621771     -1.048707      0.329178
N      1.48964      3.82692      3.50948         2.984367      3.799860     -0.508408
N      1.83368      2.58591      3.63263        -0.621771     -1.048707     -0.329178
O      2.48754      1.50258      1.90384         0.603910      1.232358     -0.866996
O      2.84845      6.03258      1.14527        -0.603910      1.232358      0.866996
O      1.06979      7.55742      4.79557        -0.603910     -1.232358      0.866996
O      0.70888      3.02742      5.55414         0.603910     -1.232358     -0.866996
