56
# total energy = -290.14438645 eVH      5.08049      2.33160      3.92057         1.968672     -1.415667      4.251027
H      6.53179      1.99237      5.14698         7.178453      0.570989      0.498883
H      2.95757      2.09398      4.58165         1.920641     -0.727465      2.161502
H      2.58336      1.19161      6.62733         3.207579      0.909456     -1.044485
H      5.30085      5.60735      1.70561        -1.968672     -1.415667     -4.251027
H      3.84956      5.26812      0.47919        -7.178453      0.570989     -0.498883
H      0.50288      5.36973      1.05178        -1.920641     -0.727465     -2.161502
H      0.87709      4.46736     10.28019        -3.207579      0.909456      1.044485
H      1.84040      4.21990      7.34628        -1.968672      1.415667     -4.251027
H      0.38911      4.55913      6.11987        -7.178453     -0.570989     -0.498883
H      3.96333      4.45752      6.68520        -1.920641      0.727465     -2.161502
H      4.33753      5.35989      4.63952        -3.207579     -0.909456      1.044485
H      1.62004      0.94415      9.56124         1.968672      1.415667      4.251027
H      3.07134      1.28338     10.78766         7.178453     -0.570989      0.498883
H      6.41801      1.18177     10.21507         1.920641      0.727465      2.161502
H      6.04381      2.08414      0.98666         3.207579     -0.909456     -1.044485
C      5.29167      1.11207      7.16801         3.415561     -2.377418      5.590310
C      4.75826      1.55825      5.96045        59.846672     -7.563085      8.178231
C      5.08967      4.38782      9.73227        -3.415561     -2.377418     -5.590310
C      5.62309      4.83400     10.93983       -59.846672     -7.563085     -8.178231
C      1.62922      5.43943      4.09884        -3.415561      2.377418     -5.590310
C      2.16264      4.99325      5.30640       -59.846672      7.563085     -8.178231
C      1.83123      2.16368      1.53458         3.415561      2.377418      5.590310
C      1.29781      1.71750      0.32702        59.846672      7.563085      8.178231
N      6.66566      0.92983      7.44648         1.030355      1.565817     -2.811818
N      4.47208      0.84238      8.25418        -0.946211     -0.384789      0.055490
N      5.64009      1.90124      5.13689        -3.674105      3.052946    -11.138709
N      3.82622      1.67318      5.85156       -75.036602      7.622006     -9.415314
N      3.71569      4.20558      9.45379        -1.030355      1.565817      2.811818
N      5.90927      4.11813      8.64609         0.946211     -0.384789     -0.055490
N      4.74125      5.17699      0.48928         3.674105      3.052946     11.138709
N     -0.36577      4.94893     11.05597        75.036602      7.622006      9.415314
N      0.25524      5.62167      3.82037        -1.030355     -1.565817      2.811818
N      2.44882      5.70912      3.01267         0.946211      0.384789     -0.055490
N      1.28081      4.65026      6.12996         3.674105     -3.052946     11.138709
N      3.09468      4.87832      5.41529        75.036602     -7.622006      9.415314
N      3.20521      2.34592      1.81306         1.030355     -1.565817     -2.811818
N      1.01163      2.43337      2.62076        -0.946211      0.384789      0.055490
N      2.17964      1.37451     10.77757        -3.674105     -3.052946    -11.138709
N      0.36577      1.60257      0.21813       -75.036602     -7.622006     -9.415314
O      0.15756      0.37236      8.47804         0.480885     -0.363038      0.742546
O      0.59791      1.33867      6.49677        -0.344708     -1.137771      2.551293
O      3.27721      0.35791      8.01598         1.324596      0.794812      0.638196
O      4.83237      1.09456      9.46685        -0.292863     -0.295706     -0.354067
O      3.30288      3.64811      8.42948        -0.480885     -0.363038     -0.742546
O      2.86254      4.61442     10.41076         0.344708     -1.137771     -2.551293
O      0.18324      3.63366      8.89155        -1.324596      0.794812     -0.638196
O      5.54898      4.37031      7.43343         0.292863     -0.295706      0.354067
O      6.76333      6.17914      2.78881        -0.480885      0.363038     -0.742546
O      6.32299      5.21283      4.77009         0.344708      1.137771     -2.551293
O      3.64369      6.19359      3.25087        -1.324596     -0.794812     -0.638196
O      2.08853      5.45694      1.80000         0.292863      0.295706      0.354067
O      3.61801      2.90339      2.83737         0.480885      0.363038      0.742546
O      4.05836      1.93708      0.85609        -0.344708      1.137771      2.551293
O      6.73766      2.91784      2.37531         1.324596     -0.794812      0.638196
O      1.37192      2.18119      3.83343        -0.292863      0.295706     -0.354067
