40
# total energy = -224.81711564 eVH      6.12541      1.33637      6.13749        -0.022592     -0.001756      0.000998
H      4.92298      3.03926      4.95692         0.035137     -0.001593     -0.022462
H      5.81272      4.27342      3.97974         0.005828     -0.029977      0.023871
H      5.83661      4.33875      5.78512         0.010569     -0.025019      0.018791
H      6.13076      1.32060      3.69066         0.006904      0.008345      0.015460
H      4.41779      4.15503      1.78479         0.022592      0.001756      0.000998
H      5.62022      2.45214      0.60422        -0.035137      0.001593     -0.022462
H      4.73048      1.21798      8.33244        -0.005828      0.029977      0.023871
H      4.70659      1.15265      1.43242        -0.010569      0.025019      0.018791
H      4.41244      4.17080      8.04336        -0.006904     -0.008345      0.015460
H      2.61101      4.15503      1.78479        -0.022592      0.001756      0.000998
H      1.40858      2.45214      0.60422         0.035137      0.001593     -0.022462
H      2.29832      1.21798      8.33244         0.005828      0.029977      0.023871
H      2.32221      1.15265      1.43242         0.010569      0.025019      0.018791
H      2.61636      4.17080      8.04336         0.006904     -0.008345      0.015460
H      0.90339      1.33637      6.13749         0.022592     -0.001756      0.000998
H      2.10582      3.03926      4.95692        -0.035137     -0.001593     -0.022462
H      1.21608      4.27342      3.97974        -0.005828     -0.029977      0.023871
H      1.19219      4.33875      5.78512        -0.010569     -0.025019      0.018791
H      0.89804      1.32060      3.69066        -0.006904      0.008345      0.015460
H     -0.00000      2.62054      7.01555         0.000000     -0.001043     -0.053817
H     -0.00000      2.61559      2.81196         0.000000     -0.036926      0.068570
H      3.51440      2.87086      2.66285         0.000000      0.001043     -0.053817
H      3.51440      2.87581      7.16466         0.000000      0.036926      0.068570
C      5.80649      3.68614      4.90647        -0.004207      0.030000     -0.046642
C      4.73671      1.80526      0.55377         0.004207     -0.030000     -0.046642
C      2.29209      1.80526      0.55377        -0.004207     -0.030000     -0.046642
C      1.22231      3.68614      4.90647         0.004207      0.030000     -0.046642
C     -0.00000      4.78458      0.61195         0.000000     -0.043788      0.072833
C     -0.00000      1.95639      6.14191         0.000000      0.033345      0.048750
C     -0.00000      1.94708      3.68503         0.000000      0.047437     -0.070149
C      3.51440      0.70682      4.96465         0.000000      0.043788      0.072833
C      3.51440      3.53501      1.78921         0.000000     -0.033345      0.048750
C      3.51440      3.54432     -0.66767         0.000000     -0.047437     -0.070149
N     -0.00000      4.76708      1.81411         0.000000     -0.026031     -0.097845
N     -0.00000      2.81421      4.91095         0.000000      0.010023      0.079813
N      3.51440      0.72432      6.16681         0.000000      0.026031     -0.097845
N      3.51440      2.67719      0.55825         0.000000     -0.010023      0.079813
O     -0.00000      4.78621      8.08620         0.000000      0.014113     -0.028189
O      3.51440      0.70519      3.73350         0.000000     -0.014113     -0.028189
