18
# total energy = -101.79227449 eVH      0.63853      4.23189      9.04302        -0.006294     -0.004585     -0.061388
H      0.57062      1.23732      0.19020        -0.030688      0.000273      0.052577
H      3.24965      0.50331      8.14952         0.055383     -0.056841     -0.010205
H      3.17370      0.16469      0.71634         0.004296      0.060940      0.002023
H      1.87305      2.56456      6.99016        -0.010075     -0.009665     -0.032332
H      0.63853      0.44711      4.48702        -0.006294      0.004585     -0.061388
H      0.57062      3.44168      4.74620        -0.030688     -0.000273      0.052577
H      3.24965      4.17569      3.59352         0.055383      0.056841     -0.010205
H      3.17370      4.51431      5.27234         0.004296     -0.060940      0.002023
H      1.87305      2.11444      2.43416        -0.010075      0.009665     -0.032332
C      1.90091      1.73567      6.24479        -0.006051      0.065049      0.054108
C      1.90091      2.94333      1.68879        -0.006051     -0.065049      0.054108
N      0.00134      0.37575     -0.00751        -0.014777      0.039432     -0.004936
N      0.00134      4.30325      4.54849        -0.014777     -0.039432     -0.004936
O      1.48376      1.98433      5.07083         0.012926     -0.074385      0.081675
O      2.35096      0.61614      6.65080        -0.004721      0.069378     -0.081522
O      1.48376      2.69467      0.51483         0.012926      0.074385      0.081675
O      2.35096      4.06286      2.09480        -0.004721     -0.069378     -0.081522
