44
# total energy = -299.31760087 eVH      8.37241      8.44264      1.94797         0.092544      0.019901     -0.164921
H      8.43697      9.00758      0.21680        -0.080792     -0.125496      0.309069
H      2.49328      5.61116      3.98202        -0.301588     -0.257136     -0.108241
H      1.19150      4.43309      3.57879        -0.002438      0.026864     -0.018841
H      0.69085      1.48653      0.54218        -0.092544     -0.019901      0.164921
H      0.62628      0.92159      2.27335         0.080792      0.125496     -0.309069
H      6.56997      4.31802     -1.49187         0.301588      0.257136      0.108241
H      7.87175      5.49608     -1.08864         0.002438     -0.026864      0.018841
C      6.76336      1.55415      2.38468        -0.578288      0.229818      0.073562
C      2.01189      4.25639      5.41043         0.075945     -0.231387      0.517573
C      2.29990      8.37503      0.10547         0.578288     -0.229818     -0.073562
C      7.05137      5.67278     -2.92028        -0.075945      0.231387     -0.517573
N      5.97862      2.21462      1.49333         0.586528     -0.320797      0.075732
N      7.93999      8.85079      1.10511         0.432725     -0.059104     -0.139366
N      6.47595      2.39730      0.24672        -0.141979     -0.020738      0.294400
N      6.22062      1.43701      3.67136         0.341237     -0.051428     -0.345293
N      5.09305      1.91973      3.81447        -1.885959      0.728051      0.469644
N      4.05002      2.32284      4.09652         1.371941     -0.569818     -0.289536
N      1.32708      3.25007      6.00358         0.012205      0.293894     -0.573041
N      1.86573      4.82100      4.23697         0.430354      0.527721     -0.219384
N      0.31519      2.68723      5.28881         0.259999      0.166978      0.066053
N      3.04174      4.81243     -0.94182        -0.259987     -0.022937     -0.540373
N      3.09019      4.39797      0.21981         0.264852     -0.761729      2.609839
N      3.22289      4.09315      1.32913        -0.166744      0.625834     -2.008396
N      3.08464      7.71455      0.99682        -0.586528      0.320797     -0.075732
N      1.12327      1.07839      1.38504        -0.432725      0.059104      0.139366
N      2.58731      7.53187      2.24343         0.141979      0.020738     -0.294400
N      2.84264      0.63227     -0.03317        -0.341237      0.051428      0.345293
N      3.97021      8.00944     -1.32432         1.885959     -0.728051     -0.469644
N      5.01324      7.60633     -1.60637        -1.371941      0.569818      0.289536
N      7.73617      6.67910     -3.51343        -0.012205     -0.293894      0.573041
N      7.19753      5.10818     -1.74682        -0.430354     -0.527721      0.219384
N      8.74806      7.24194     -2.79866        -0.259999     -0.166978     -0.066053
N      6.02151      5.11674      3.43198         0.259987      0.022937      0.540373
N      5.97306      5.53120      2.27034        -0.264852      0.761729     -2.609839
N      5.84036      5.83602      1.16102         0.166744     -0.625834      2.008396
O      5.68485      2.98594     -0.53508         0.025631      0.117206     -0.228850
O      7.61849      2.02556     -0.11595        -0.051775      0.059997     -0.083280
O      8.71734      3.90619      2.43024        -0.130554     -0.185039      0.052971
O      0.06003      2.99112      4.09196        -0.044923     -0.178489      0.186180
O      3.37840      6.94323      3.02523        -0.025631     -0.117206      0.228850
O      1.44476      7.90361      2.60610         0.051775     -0.059997      0.083280
O      0.34592      6.02298      0.05991         0.130554      0.185039     -0.052971
O      9.00322      6.93805     -1.60181         0.044923      0.178489     -0.186180
