36
# total energy = -212.59922378 eVH      4.14196      2.32591      2.25111        -1.911981      1.115038      1.491352
H      4.17273      1.48445     -0.19893         1.844625      1.720797      2.573995
H      6.93390      1.00648      0.79521        -0.048334      0.164807     -6.722135
H      0.54234      0.67072      3.30532         1.221898     -0.471220      0.231366
H      6.42365      0.85753      4.26388         2.502723     -1.734332      1.597688
H      5.04739      1.61986      4.20892        -3.619694      1.428672      1.837882
H      4.14196      1.19009      9.43011        -1.911981     -1.115038      1.491352
H      4.17273      2.03155      6.98007         1.844625     -1.720797      2.573995
H      6.93390      2.50952      7.97421        -0.048334     -0.164807     -6.722135
H      0.54234      2.84528     10.48432         1.221898      0.471220      0.231366
H      6.42365      2.65847     11.44288         2.502723      1.734332      1.597688
H      5.04739      1.89614     11.38792        -3.619694     -1.428672      1.837882
C      5.85047      1.38527      2.44570        -2.598249      0.875931     -1.413432
C      5.85047      2.13073      9.62470        -2.598249     -0.875931     -1.413432
N      1.58148      3.42638      5.42764        -0.495578      0.309069      0.202519
N      1.44626      3.14142      6.78113        -0.046260      0.117769     -0.339765
N      2.70305      3.02516      4.83857         0.062842     -0.039590     -0.423586
N      4.79872      1.77042      1.80070        -3.267342      0.569409     -1.762140
N      6.77696      1.03409      1.69062         5.290919     -2.305322      5.039182
N      5.81264      1.35772      3.72588         1.586254      0.134693      0.131116
N      1.58148      0.08962     12.60664        -0.495578     -0.309069      0.202519
N      1.44626      0.37458     13.96013        -0.046260     -0.117769     -0.339765
N      2.70305      0.49084     12.01757         0.062842      0.039590     -0.423586
N      4.79872      1.74558      8.97970        -3.267342     -0.569409     -1.762140
N      6.77696      2.48191      8.86962         5.290919      2.305322      5.039182
N      5.81264      2.15828     10.90488         1.586254     -0.134693      0.131116
O      2.27640      2.61089      7.50356         0.904264     -0.581997      0.556300
O      0.33958     -0.01602      7.19402        -1.285087      0.468953      0.291184
O      3.65202      2.42679      5.38475         0.926008     -0.589693      0.447165
O      2.73150      3.28371      3.61794        -0.003583      0.226389     -0.668701
O      4.84600      2.14512      0.48257        -1.063425     -1.629614     -3.069992
O      2.27640      0.90511      0.32456         0.904264      0.581997      0.556300
O      0.33958      0.01602      0.01502        -1.285087     -0.468953      0.291184
O      3.65202      1.08921     12.56375         0.926008      0.589693      0.447165
O      2.73150      0.23229     10.79694        -0.003583     -0.226389     -0.668701
O      4.84600      1.37088      7.66157        -1.063425      1.629614     -3.069992
