6
# total energy = -42.76215815 eVZr      0.00000     -0.00000      4.08682         0.000000      0.000000      0.006062
Zr      1.64000      1.64000      9.88682         0.000000      0.000000      0.006062
Zr      0.00000      0.00000      7.51318         0.000000      0.000000     -0.006062
Zr      1.64000      1.64000      1.71318        -0.000000     -0.000000     -0.006062
Au      0.00000     -0.00000      0.00000         0.000000     -0.000000      0.000000
Au      1.64000      1.64000      5.80000        -0.000000     -0.000000      0.000000
