36
# total energy = -220.66035945 eVH      0.72514      2.40241      2.50061         0.156956      0.145633     -0.211036
H      0.42648      3.57994      1.32956         0.483864      0.493284     -0.345552
H      4.59041      7.65541      1.12577         0.156956      0.145633     -0.211036
H      4.29175      8.83294     -0.04528         0.483864      0.493284     -0.345552
H      7.00540      2.40241     -1.10429        -0.156956      0.145633      0.211036
H      7.30406      3.57994      0.06676        -0.483864      0.493284      0.345552
H      3.14013      7.65541      0.27055        -0.156956      0.145633      0.211036
H      3.43879      8.83294      1.44160        -0.483864      0.493284      0.345552
H      7.00540      8.10359     -1.10429        -0.156956     -0.145633      0.211036
H      7.30406      6.92606      0.06676        -0.483864     -0.493284      0.345552
H      3.14013      2.85059      0.27055        -0.156956     -0.145633      0.211036
H      3.43879      1.67306      1.44160        -0.483864     -0.493284      0.345552
H      0.72514      8.10359      2.50061         0.156956     -0.145633     -0.211036
H      0.42648      6.92606      1.32956         0.483864     -0.493284     -0.345552
H      4.59041      2.85059      1.12577         0.156956     -0.145633     -0.211036
H      4.29175      1.67306     -0.04528         0.483864     -0.493284     -0.345552
C      2.16242      5.25300     -0.19857        -0.593982      0.000000      0.432945
C      3.34650      5.25300     -1.02880         2.427215      0.000000     -1.632895
C      6.02769      0.00000     -1.57341        -0.593982      0.000000      0.432945
C      7.21177      0.00000     -2.40364         2.427215      0.000000     -1.632895
C      5.56813      5.25300      1.59489         0.593982      0.000000     -0.432945
C      4.38405      5.25300      2.42512        -2.427215      0.000000      1.632895
C      1.70285      0.00000      2.96973         0.593982      0.000000     -0.432945
C      0.51877      0.00000      3.79996        -2.427215      0.000000      1.632895
N     -0.00000      3.02026      2.07300        -0.000000     -1.320186      0.000000
N      3.86527      8.27326      0.69816        -0.000000     -1.320186      0.000000
N     -0.00000      7.48574      2.07300        -0.000000      1.320186      0.000000
N      3.86527      2.23274      0.69816        -0.000000      1.320186      0.000000
O      1.69709      6.39425      0.13234         0.191227     -0.251959     -0.105427
O      5.56236      1.14125     -1.24250         0.191227     -0.251959     -0.105427
O      6.03345      6.39425      1.26398        -0.191227     -0.251959      0.105427
O      2.16818      1.14125      2.63882        -0.191227     -0.251959      0.105427
O      6.03345      4.11175      1.26398        -0.191227      0.251959      0.105427
O      2.16818      9.36475      2.63882        -0.191227      0.251959      0.105427
O      1.69709      4.11175      0.13234         0.191227      0.251959     -0.105427
O      5.56236      9.36475     -1.24250         0.191227      0.251959     -0.105427
