18
# total energy = -100.95382220 eVH      0.61506      4.24910      9.01860         0.695553     -0.902992     -0.063655
H      0.55533      1.20638      0.20440         0.374150      0.617096      0.068412
H      3.26537      0.47887      8.18055        -0.633863      0.293146     -0.937332
H      3.19376      0.16987      0.70387        -0.671298     -0.165980      0.851102
H      1.87586      2.55607      6.97750         0.029142     -0.879776     -0.785570
H      0.61506      0.42990      4.46260         0.695553      0.902992     -0.063655
H      0.55533      3.47262      4.76040         0.374150     -0.617096      0.068412
H      3.26537      4.20013      3.62455        -0.633863     -0.293146     -0.937332
H      3.19376      4.50913      5.25987        -0.671298      0.165980      0.851102
H      1.87586      2.12293      2.42150         0.029142      0.879776     -0.785570
C      1.90707      1.66407      6.19010        -0.254183      4.622237      3.862219
C      1.90707      3.01493      1.63410        -0.254183     -4.622237      3.862219
N     -0.00305      0.36707     -0.00237         0.267710      0.287397      0.081113
N     -0.00305      4.31193      4.55363         0.267710     -0.287397      0.081113
O      1.50956      2.01457      5.08017        -0.622002     -0.709281     -2.732310
O      2.32356      0.62545      6.69534         0.814791     -2.958323     -0.343978
O      1.50956      2.66443      0.52417        -0.622002      0.709281     -2.732310
O      2.32356      4.05355      2.13934         0.814791      2.958323     -0.343978
