40
# total energy = -224.79815947 eVH      6.12501      1.32221      6.13047         0.041735      0.067331      0.025597
H      4.92656      3.04282      4.95364         0.006983      0.007853      0.008410
H      5.82630      4.25339      3.96681        -0.014813      0.056214      0.003864
H      5.82257      4.36476      5.77330         0.046792     -0.090276     -0.015694
H      6.13290      1.32517      3.68331        -0.046107     -0.005168      0.066855
H      4.41819      4.16919      1.77777        -0.041735     -0.067331      0.025597
H      5.61664      2.44858      0.60094        -0.006983     -0.007853      0.008410
H      4.71690      1.23801      8.31951         0.014813     -0.056214      0.003864
H      4.72063      1.12664      1.42060        -0.046792      0.090276     -0.015694
H      4.41030      4.16623      8.03601         0.046107      0.005168      0.066855
H      2.61061      4.16919      1.77777         0.041735     -0.067331      0.025597
H      1.41216      2.44858      0.60094         0.006983     -0.007853      0.008410
H      2.31190      1.23801      8.31951        -0.014813     -0.056214      0.003864
H      2.30817      1.12664      1.42060         0.046792      0.090276     -0.015694
H      2.61850      4.16623      8.03601        -0.046107      0.005168      0.066855
H      0.90379      1.32221      6.13047        -0.041735      0.067331      0.025597
H      2.10224      3.04282      4.95364        -0.006983      0.007853      0.008410
H      1.20250      4.25339      3.96681         0.014813      0.056214      0.003864
H      1.20623      4.36476      5.77330        -0.046792     -0.090276     -0.015694
H      0.89590      1.32517      3.68331         0.046107     -0.005168      0.066855
H     -0.00000      2.59285      7.03472        -0.000000      0.025385     -0.060016
H     -0.00000      2.62563      2.82513        -0.000000      0.055234     -0.035111
H      3.51440      2.89855      2.68202        -0.000000     -0.025385     -0.060016
H      3.51440      2.86577      7.17783        -0.000000     -0.055234     -0.035111
C      5.80818      3.69201      4.90739        -0.027838     -0.051957     -0.003454
C      4.73502      1.79939      0.55469         0.027838      0.051957     -0.003454
C      2.29378      1.79939      0.55469        -0.027838      0.051957     -0.003454
C      1.22062      3.69201      4.90739         0.027838     -0.051957     -0.003454
C     -0.00000      4.79417      0.61904        -0.000000     -0.015862      0.142453
C     -0.00000      1.94649      6.14859        -0.000000     -0.061416      0.007261
C     -0.00000      1.95188      3.68868        -0.000000      0.117966      0.128878
C      3.51440      0.69723      4.97174        -0.000000      0.015862      0.142453
C      3.51440      3.54491      1.79589        -0.000000      0.061416      0.007261
C      3.51440      3.53952     -0.66402        -0.000000     -0.117966      0.128878
N     -0.00000      4.78945      1.82250        -0.000000     -0.048377     -0.193852
N     -0.00000      2.81804      4.92869        -0.000000     -0.090693     -0.158126
N      3.51440      0.70195      6.17520        -0.000000      0.048377     -0.193852
N      3.51440      2.67336      0.57599        -0.000000      0.090693     -0.158126
O     -0.00000      4.78931      8.09328        -0.000000     -0.007675     -0.002644
O      3.51440      0.70209      3.74058        -0.000000      0.007675     -0.002644
