16
# total energy = -105.01115222 eVC      2.38121      1.35860      2.16562         0.675337      2.704340      0.014952
C      2.95477      5.88860      0.88349        -0.675337      2.704340     -0.014952
C      1.17611      7.70140      4.53378        -0.675337     -2.704340     -0.014952
C      0.60255      3.17140      5.81592         0.675337     -2.704340      0.014952
N      0.01853      0.51264      0.35077        -2.632675      3.474166      1.485562
N     -0.55511      1.57247      0.86579         1.669143      0.234471      2.092812
N      1.76014      5.04264      2.99894         2.632675      3.474166     -1.485562
N      2.33377      6.10247      2.48392        -1.669143      0.234471     -2.092812
N     -0.01853      8.54736     -0.35077         2.632675     -3.474166     -1.485562
N      0.55511      7.48753      6.13421        -1.669143     -0.234471     -2.092812
N      1.79719      4.01736      3.70047        -2.632675     -3.474166      1.485562
N      1.22355      2.95753      4.21549         1.669143     -0.234471      2.092812
O      2.79386      2.28155      1.63681        -1.119711     -3.344574     -1.185090
O      2.54212      6.81155      1.41230         1.119711     -3.344574      1.185090
O      0.76346      6.77845      5.06259         1.119711      3.344574      1.185090
O      1.01520      2.24845      5.28711        -1.119711      3.344574     -1.185090
