88
# total energy = -462.26114756 eVC      4.97622      2.11176      3.72913         0.014416      0.308419      0.183548
C      6.03489      0.26280      4.95856         0.138123      0.187578      0.362059
C      4.65393     11.29624     11.02113        -0.014416     -0.308419      0.183548
C      3.59526     13.14520     12.25056        -0.138123     -0.187578      0.362059
C      1.44388      8.81576      3.56287        -0.014416      0.308419     -0.183548
C      0.38521      6.96680      2.33344        -0.138123      0.187578     -0.362059
C      1.76617      4.59224     10.85487         0.014416     -0.308419     -0.183548
C      2.82484      6.44120      9.62544         0.138123     -0.187578     -0.362059
N      5.19835     11.17825      1.48319         0.600103      3.449007     -0.444812
N      5.31969     12.55391      1.47444        -1.149652      0.321365      2.267375
N      5.75305     13.08621      0.30335        -1.041723     -1.945907      2.534224
N      2.21237      0.03218      1.98197         0.347019      2.033093     -1.036508
N      2.31316      0.76023      0.85316         0.179330      0.961740     -3.265498
N      2.09167      2.12785      0.99025         0.710612     -2.896274     -0.379473
N      4.85424      2.59043      2.52449         0.085045     -0.485562      1.859992
N      4.65650      2.82641      4.77480         0.630797     -1.032540     -1.494441
N      5.42884      0.82325      3.85747        -0.087968      0.203978      0.051046
N      5.92960     12.37692      5.09711         0.226069      1.475333     -0.037296
N      0.30431      0.99487      5.78693        -0.805754     -0.943618     -0.730056
N      4.43180      2.22975      8.77519        -0.600103     -3.449007     -0.444812
N      4.31046      0.85409      8.76644         1.149652     -0.321365      2.267375
N      3.87710      0.32179      7.59535         1.041723      1.945907      2.534224
N      0.99768     13.37582      9.27397        -0.347019     -2.033093     -1.036508
N      0.89689     12.64777      8.14516        -0.179330     -0.961740     -3.265498
N      1.11838     11.28015      8.28225        -0.710612      2.896274     -0.379473
N      4.77591     10.81757      9.81649        -0.085045      0.485562      1.859992
N      4.97365     10.58159     12.06680        -0.630797      1.032540     -1.494441
N      4.20131     12.58475     11.14947         0.087968     -0.203978      0.051046
N      3.70055      1.03108     12.38911        -0.226069     -1.475333     -0.037296
N      2.90574     12.41313     13.07893         0.805754      0.943618     -0.730056
N      1.22175      4.47425      5.80881        -0.600103      3.449007      0.444812
N      1.10041      5.84991      5.81756         1.149652      0.321365     -2.267375
N      0.66705      6.38221      6.98865         1.041723     -1.945907     -2.534224
N      4.20773      6.73618      5.31003        -0.347019      2.033093      1.036508
N      4.10694      7.46423      6.43884        -0.179330      0.961740      3.265498
N      4.32843      8.83185      6.30175        -0.710612     -2.896274      0.379473
N      1.56586      9.29443      4.76751        -0.085045     -0.485562     -1.859992
N      1.76360      9.53041      2.51720        -0.630797     -1.032540      1.494441
N      0.99126      7.52725      3.43453         0.087968      0.203978     -0.051046
N      0.49050      5.67292      2.19489        -0.226069      1.475333      0.037296
N      6.11579      7.69887      1.50507         0.805754     -0.943618      0.730056
N      1.98830      8.93375     13.10081         0.600103     -3.449007      0.444812
N      2.10964      7.55809     13.10956        -1.149652     -0.321365     -2.267375
N      2.54300      7.02579     14.28065        -1.041723      1.945907     -2.534224
N      5.42242      6.67182     12.60203         0.347019     -2.033093      1.036508
N      5.52321      5.94377     13.73084         0.179330     -0.961740      3.265498
N      5.30172      4.57615     13.59375         0.710612      2.896274      0.379473
N      1.64419      4.11357     12.05951         0.085045      0.485562     -1.859992
N      1.44645      3.87759      9.80920         0.630797      1.032540      1.494441
N      2.21879      5.88075     10.72653        -0.087968     -0.203978     -0.051046
N      2.71955      7.73508      9.48689         0.226069     -1.475333      0.037296
N      3.51436      5.70913      8.79707        -0.805754      0.943618      0.730056
O      5.03272     10.49310      0.49148        -0.525906     -3.265857     -6.356888
O      5.17139     10.71165      2.61345        -0.123779     -3.326515      8.011505
O      6.18127     12.44665     13.92772         1.887012     -3.169095     -4.973701
O      5.74150      0.91174      0.30043         0.314966      7.855846     -0.938462
O      2.15780     12.23614      1.76029        -0.315838     -8.452594     -0.476585
O      2.25410      0.50950      3.12681        -0.232248      2.259965      5.334553
O      2.53530      2.75400      0.02625         2.698546      3.837280     -6.053728
O      1.47662      2.61992      1.92800        -3.105257      1.887103      5.439720
O      2.80302     11.76284      4.95856        -0.213310     -0.071242     -0.203717
O      4.59743      2.91490      7.78348         0.525906      3.265857     -6.356888
O      4.45876      2.69635      9.90545         0.123779      3.326515      8.011505
O      3.44888      0.96135      6.63572        -1.887012      3.169095     -4.973701
O      3.88865     12.49626      7.59243        -0.314966     -7.855846     -0.938462
O      1.05225      1.17186      9.05229         0.315838      8.452594     -0.476585
O      0.95595     12.89850     10.41881         0.232248     -2.259965      5.334553
O      0.67475     10.65400      7.31825        -2.698546     -3.837280     -6.053728
O      1.73343     10.78808      9.22000         3.105257     -1.887103      5.439720
O      0.40703      1.64516     12.25056         0.213310      0.071242     -0.203717
O      1.38738      3.78910      6.80052         0.525906     -3.265857      6.356888
O      1.24871      4.00765      4.67855         0.123779     -3.326515     -8.011505
O      0.23883      5.74265      7.94828        -1.887012     -3.169095      4.973701
O      0.67860      7.61574      6.99157        -0.314966      7.855846      0.938462
O      4.26230      5.53214      5.53171         0.315838     -8.452594      0.476585
O      4.16600      7.21350      4.16519         0.232248      2.259965     -5.334553
O      3.88480      9.45800      7.26575        -2.698546      3.837280      6.053728
O      4.94348      9.32392      5.36400         3.105257      1.887103     -5.439720
O      3.61708      5.05884      2.33344         0.213310     -0.071242      0.203717
O      1.82267      9.61890     14.09252        -0.525906      3.265857      6.356888
O      1.96134      9.40035     11.97055        -0.123779      3.326515     -8.011505
O      2.97122      7.66535      0.65628         1.887012      3.169095      4.973701
O      2.53145      5.79226     14.28357         0.314966     -7.855846      0.938462
O      5.36785      7.87586     12.82371        -0.315838      8.452594      0.476585
O      5.46415      6.19450     11.45719        -0.232248     -2.259965     -5.334553
O      5.74535      3.95000     14.55775         2.698546     -3.837280      6.053728
O      4.68667      4.08408     12.65600        -3.105257     -1.887103     -5.439720
O      6.01307      8.34916      9.62544        -0.213310      0.071242      0.203717
