48
# total energy = -204.50990025 eVC      4.68615      3.26322      7.88410        -4.282611     -0.216016     -1.921457
C      4.40495      2.09114      5.87449        -0.276440     -0.116972     -0.131815
C      6.47894      1.38366      5.56621        -0.077121     -1.027270     -1.715424
C      7.24917      1.89097      6.56500         3.313699     -0.601974      0.881338
C      5.11705      0.58995      3.63569        -0.061503     -0.789000     -1.251466
C      1.87359      6.96522      1.36883         4.282611     -0.216016      1.921457
C      2.15479      5.79314      3.37845         0.276440     -0.116972      0.131815
C      0.08080      5.08566      3.68672         0.077121     -1.027270      1.715424
C     12.43005      5.59297      8.77779        -3.313699     -0.601974     -0.881338
C      1.44269      4.29195      5.61724         0.061503     -0.789000      1.251466
C      8.43333      4.14078      4.41377         4.282611      0.216016      1.921457
C      8.71453      5.31286      6.42338         0.276440      0.116972      0.131815
C      6.64055      6.02034      6.73165         0.077121      1.027270      1.715424
C      5.87031      5.51303      5.73286        -3.313699      0.601974     -0.881338
C      8.00243      6.81405      8.66217         0.061503      0.789000      1.251466
C     11.24590      0.43878     10.92903        -4.282611      0.216016     -1.921457
C     10.96470      1.61086      8.91942        -0.276440      0.116972     -0.131815
C     13.03868      2.31834      8.61114        -0.077121      1.027270     -1.715424
C      0.68943      1.81103      3.52007         3.313699      0.601974      0.881338
C     11.67680      3.11205      6.68062        -0.061503      0.789000     -1.251466
N      5.89061      3.10825      8.15131        10.201960    -17.091392    -21.564876
N      4.62638      2.64876      6.82328        -0.176638      2.047625      3.243563
N      5.63504      1.17120      4.86988        23.660689     -3.319539      4.316414
N      4.57521      1.36117      4.74590       -22.509468      3.377935     -3.536957
N      0.66914      6.81025      1.10162       -10.201960    -17.091392     21.564876
N      1.93336      6.35076      2.42965         0.176638      2.047625     -3.243563
N      0.92470      4.87320      4.38305       -23.660689     -3.319539     -4.316414
N      1.98453      5.06317      4.50704        22.509468      3.377935      3.536957
N      7.22888      4.29575      4.14655       -10.201960     17.091392     21.564876
N      8.49310      4.75524      5.47458         0.176638     -2.047625     -3.243563
N      7.48444      6.23280      7.42798       -23.660689      3.319539     -4.316414
N      8.54427      6.04283      7.55197        22.509468     -3.377935      3.536957
N     12.45035      0.59375     11.19624        10.201960     17.091392    -21.564876
N     11.18612      1.05324      9.86821        -0.176638     -2.047625      3.243563
N     12.19479      2.53080      7.91481        23.660689      3.319539      4.316414
N     11.13495      2.34083      7.79083       -22.509468     -3.377935     -3.536957
O      5.51475      3.71223      2.68652        -9.770247     16.840447     21.029633
O      8.39512      1.53845      6.68709        -2.802547      1.029819     -0.516200
O      4.47463      0.15924      2.75373        -0.359089     -0.194181     -0.693613
O      1.04500      0.01023      6.56641         9.770247     16.840447    -21.029633
O     11.28411      5.24045      8.65570         2.802547      1.029819      0.516200
O      2.08511      3.86124      6.49920         0.359089     -0.194181      0.693613
O      7.60474      3.69177      9.61134         9.770247    -16.840447    -21.029633
O      4.72437      5.86555      5.61077         2.802547     -1.029819      0.516200
O      8.64486      7.24476      9.54413         0.359089      0.194181      0.693613
O     12.07449      7.39377      5.73145        -9.770247    -16.840447     21.029633
O      1.83538      2.16355      3.64216        -2.802547     -1.029819     -0.516200
O     11.03437      3.54276      5.79867        -0.359089      0.194181     -0.693613
