12
# total energy = -68.73967672 eVC      2.48092      1.30750      0.97661       -18.463286      0.000000     -5.071600
C      2.92908      3.92250      2.76161        18.463286      0.000000     -5.071600
C      8.33908      3.92250      2.59339        18.463286     -0.000000      5.071600
C      7.89092      1.30750      0.80839       -18.463286      0.000000      5.071600
N     -1.21626      1.30750     -0.22993        -4.361431      0.000000      4.559159
N      6.62626      3.92250      1.55507         4.361431     -0.000000      4.559159
N      1.21626      3.92250      0.22993         4.361431      0.000000     -4.559159
N      4.19374      1.30750      2.01493        -4.361431      0.000000     -4.559159
O      3.26325      1.30750      1.17460        22.844689      0.000000      9.630390
O      2.14675      3.92250      2.95960       -22.844689     -0.000000      9.630390
O      7.55675      3.92250      2.39540       -22.844689      0.000000     -9.630390
O      8.67325      1.30750      0.61040        22.844689      0.000000     -9.630390
