12
# total energy = -76.15117312 eVC      2.35463      1.30750      0.89686         0.859664      0.000000      0.122970
C      3.05537      3.92250      2.68186        -0.859664      0.000000      0.122970
C      8.46537      3.92250      2.67314        -0.859664      0.000000     -0.122970
C      7.76463      1.30750      0.88814         0.859664      0.000000     -0.122970
N     -1.15298      1.30750     -0.21722        -0.893701     -0.000000      1.101948
N      6.56298      3.92250      1.56778         0.893701     -0.000000      1.101948
N      1.15298      3.92250      0.21722         0.893701     -0.000000     -1.101948
N      4.25702      1.30750      2.00222        -0.893701     -0.000000     -1.101948
O      3.31790      1.30750      1.26904        -0.009446     -0.000000      0.981327
O      2.09210      3.92250      3.05404         0.009446      0.000000      0.981327
O      7.50210      3.92250      2.30096         0.009446     -0.000000     -0.981327
O      8.72790      1.30750      0.51596        -0.009446      0.000000     -0.981327
