12
# total energy = -40.99475378 eVC      1.93255      1.30750      0.82694        -0.761595      0.000000     -0.349698
C      3.47745      3.92250      2.61194         0.761595      0.000000     -0.349698
C      8.88745      3.92250      2.74306         0.761595      0.000000      0.349698
C      7.34255      1.30750      0.95806        -0.761595      0.000000      0.349698
N      0.52472      1.30750      0.32900        -1.004226     -0.000000     -0.426607
N      4.88528      3.92250      2.11400         1.004226      0.000000     -0.426607
N     10.29528      3.92250      3.24100         1.004226      0.000000      0.426607
N      5.93472      1.30750      1.45600        -1.004226     -0.000000      0.426607
O      2.94815      1.30750      1.20483         1.105071      0.000000      0.362215
O      2.46185      3.92250      2.98983        -1.105071      0.000000      0.362215
O      7.87185      3.92250      2.36517        -1.105071     -0.000000     -0.362215
O      8.35815      1.30750      0.58017         1.105071      0.000000     -0.362215
