36
# total energy = -220.88922112 eVH      0.74754      2.40192      2.48601        -0.044965      0.021249     -0.028069
H      0.45023      3.58835      1.33582        -0.001143     -0.008562      0.001572
H      4.61281      7.65492      1.11117        -0.044965      0.021249     -0.028069
H      4.31550      8.84135     -0.03902        -0.001143     -0.008562      0.001572
H      6.98301      2.40192     -1.08969         0.044965      0.021249      0.028069
H      7.28031      3.58835      0.06049         0.001143     -0.008562     -0.001572
H      3.11773      7.65492      0.28515         0.044965      0.021249      0.028069
H      3.41504      8.84135      1.43533         0.001143     -0.008562     -0.001572
H      6.98301      8.10408     -1.08969         0.044965     -0.021249      0.028069
H      7.28031      6.91765      0.06049         0.001143      0.008562     -0.001572
H      3.11773      2.85108      0.28515         0.044965     -0.021249      0.028069
H      3.41504      1.66465      1.43533         0.001143      0.008562     -0.001572
H      0.74754      8.10408      2.48601        -0.044965     -0.021249     -0.028069
H      0.45023      6.91765      1.33582        -0.001143      0.008562      0.001572
H      4.61281      2.85108      1.11117        -0.044965     -0.021249     -0.028069
H      4.31550      1.66465     -0.03902        -0.001143      0.008562      0.001572
C      2.16187      5.25300     -0.19579         0.011679     -0.000000      0.016905
C      3.35900      5.25300     -1.03692        -0.051341     -0.000000      0.033221
C      6.02714      0.00000     -1.57063         0.011679     -0.000000      0.016905
C      7.22427      0.00000     -2.41176        -0.051341     -0.000000      0.033221
C      5.56867      5.25300      1.59211        -0.011679     -0.000000     -0.016905
C      4.37154      5.25300      2.43324         0.051341     -0.000000     -0.033221
C      1.70340      0.00000      2.96695        -0.011679     -0.000000     -0.016905
C      0.50627      0.00000      3.80808         0.051341     -0.000000     -0.033221
N     -0.00000      3.00106      2.07300         0.000000     -0.062964     -0.000000
N      3.86527      8.25406      0.69816         0.000000     -0.062964     -0.000000
N     -0.00000      7.50494      2.07300         0.000000      0.062964     -0.000000
N      3.86527      2.25194      0.69816         0.000000      0.062964     -0.000000
O      1.70282      6.39081      0.13128         0.029237      0.015850      0.026673
O      5.56810      1.13781     -1.24356         0.029237      0.015850      0.026673
O      6.02772      6.39081      1.26503        -0.029237      0.015850     -0.026673
O      2.16245      1.13781      2.63987        -0.029237      0.015850     -0.026673
O      6.02772      4.11519      1.26503        -0.029237     -0.015850     -0.026673
O      2.16245      9.36819      2.63987        -0.029237     -0.015850     -0.026673
O      1.70282      4.11519      0.13128         0.029237     -0.015850      0.026673
O      5.56810      9.36819     -1.24356         0.029237     -0.015850      0.026673
