16
# total energy = -97.34114446 eVH      1.44674      4.27774      1.39244         0.053880      0.053880     -0.038060
H      0.79682      3.62782     -0.11525         0.019808      0.019808      0.075990
H      4.21526      1.38426      1.39244        -0.053880     -0.053880     -0.038060
H      4.86518      2.03418     -0.11525        -0.019808     -0.019808      0.075990
H      4.27774      4.21526      3.32356         0.053880     -0.053880      0.038060
H      3.62782      4.86518      0.11525         0.019808     -0.019808     -0.075990
H      1.38426      1.44674      3.32356        -0.053880      0.053880      0.038060
H      2.03418      0.79682      0.11525        -0.019808      0.019808     -0.075990
C     -0.00000      2.83100      1.61251         0.000000     -0.000000      0.055012
C      2.83100      0.00000      3.10349         0.000000     -0.000000     -0.055012
N      0.81335      3.64435      0.90604         0.018312      0.018312     -0.134243
N      4.84865      2.01765      0.90604        -0.018312     -0.018312     -0.134243
N      3.64435      4.84865      3.80996         0.018312     -0.018312      0.134243
N      2.01765      0.81335      3.80996        -0.018312      0.018312      0.134243
O     -0.00000      2.83100      2.88773         0.000000     -0.000000     -0.019076
O      2.83100      0.00000      1.82827         0.000000     -0.000000      0.019076
