40
# total energy = -61.81559920 eVH      5.36120      0.60955      3.96558        -1.123505     -0.387467     -0.826580
H      5.04908      0.88213      1.52574        -0.084311     -1.743226      1.647688
H      7.13530      2.97800      3.96558         1.123505      0.387467     -0.826580
H      7.44742      2.70542      1.52574         0.084311      1.743226      1.647688
H      2.96980      4.19710      1.49662         1.123505     -0.387467      0.826580
H      3.28192      4.46968      3.93646         0.084311     -1.743226     -1.647688
H      1.19570      6.56555      1.49662        -1.123505      0.387467      0.826580
H      0.88358      6.29297      3.93646        -0.084311      1.743226     -1.647688
H      2.96980      6.56555      1.49662         1.123505      0.387467      0.826580
H      3.28192      6.29297      3.93646         0.084311      1.743226     -1.647688
H      1.19570      4.19710      1.49662        -1.123505     -0.387467      0.826580
H      0.88358      4.46968      3.93646        -0.084311     -1.743226     -1.647688
H      5.36120      2.97800      3.96558        -1.123505      0.387467     -0.826580
H      5.04908      2.70542      1.52574        -0.084311      1.743226      1.647688
H      7.13530      0.60955      3.96558         1.123505     -0.387467     -0.826580
H      7.44742      0.88213      1.52574         0.084311     -1.743226      1.647688
H      6.24825      6.84053      5.26429         0.000000     -0.464891     -0.322553
H      6.24825      3.92212      5.26429         0.000000      0.464891     -0.322553
H      2.08275      3.25298      0.19791        -0.000000     -0.464891      0.322553
H      2.08275      0.33457      0.19791         0.000000      0.464891      0.322553
H      4.11546      1.79377      0.23009         1.096298      0.000000      2.356522
H      0.05004      1.79377      0.23009        -1.096298      0.000000      2.356522
H      4.21554      5.38132      5.23211        -1.096298      0.000000     -2.356522
H     -0.05004      5.38132      5.23211         1.096298      0.000000     -2.356522
C      6.24825      0.42866      4.49007         0.000000     -1.050263      1.604974
C      6.24825      3.15889      4.49007         0.000000      1.050263      1.604974
C      2.08275      4.01621      0.97213        -0.000000     -1.050263     -1.604974
C      2.08275      6.74644      0.97213         0.000000      1.050263     -1.604974
C      4.96618      1.79377      1.04328        -1.976260      0.000000     -4.404341
C      7.53032      1.79377      1.04328         1.976260      0.000000     -4.404341
C      3.36482      5.38132      4.41892         1.976260      0.000000      4.404341
C      0.80068      5.38132      4.41892        -1.976260      0.000000      4.404341
N      6.24825      1.79377      0.03378        -0.000000      0.000000      0.868042
N      2.08275      5.38132      5.42842         0.000000      0.000000     -0.868042
N      2.08275      1.79377      2.11715        -0.000000      0.000000     -1.044638
N      6.24825      5.38132      3.34505         0.000000      0.000000      1.044638
O      3.76378      1.79377      3.90684        -1.150260      0.000000     -0.626681
O      0.40172      1.79377      3.90684         1.150260      0.000000     -0.626681
O      4.56722      5.38132      1.55536         1.150260      0.000000      0.626681
O      7.92928      5.38132      1.55536        -1.150260      0.000000      0.626681
