48
# total energy = -195.55138720 eVC      5.09110      3.22037      7.97381       -10.317797     -0.354436     -4.686372
C      4.55623      2.06634      5.89584        -0.306030     -0.881591     -1.495705
C      6.30292      1.45457      5.58039         1.894752     -0.467802     -0.068008
C      7.30728      1.88566      6.61182        -5.467969      1.690162     -0.108646
C      5.05069      0.71312      3.82059         0.792185     -1.842002     -2.828906
C      1.46864      6.92237      1.27912        10.317797     -0.354436      4.686372
C      2.00351      5.76834      3.35709         0.306030     -0.881591      1.495705
C      0.25682      5.15657      3.67254        -1.894752     -0.467802      0.068008
C     12.37195      5.58766      8.73098         5.467969      1.690162      0.108646
C      1.50905      4.41512      5.43234        -0.792185     -1.842002      2.828906
C      8.02838      4.18363      4.32406        10.317797      0.354436      4.686372
C      8.56325      5.33766      6.40203         0.306030      0.881591      1.495705
C      6.81656      5.94943      6.71747        -1.894752      0.467802      0.068008
C      5.81220      5.51834      5.68605         5.467969     -1.690162      0.108646
C      8.06880      6.69088      8.47727        -0.792185      1.842002      2.828906
C     11.65084      0.48163     11.01874       -10.317797      0.354436     -4.686372
C     11.11598      1.63566      8.94077        -0.306030      0.881591     -1.495705
C     12.86266      2.24743      8.62532         1.894752      0.467802     -0.068008
C      0.74754      1.81634      3.56689        -5.467969     -1.690162     -0.108646
C     11.61043      2.98888      6.86553         0.792185      1.842002     -2.828906
N      6.05106      2.92890      7.93167         3.141158      0.973531      2.589582
N      4.51333      2.64189      6.79053        -0.318184      1.600309      2.476653
N      5.75863      1.09792      4.73743         1.287393      0.763155      1.992697
N      4.51834      1.39171      4.76358        -2.271985      0.219842     -0.382533
N      0.50868      6.63090      1.32126        -3.141158      0.973531     -2.589582
N      2.04641      6.34389      2.46240         0.318184      1.600309     -2.476653
N      0.80112      4.79992      4.51550        -1.287393      0.763155     -1.992697
N      2.04140      5.09371      4.48935         2.271985      0.219842      0.382533
N      7.06843      4.47510      4.36619        -3.141158     -0.973531     -2.589582
N      8.60616      4.76211      5.50733         0.318184     -1.600309     -2.476653
N      7.36086      6.30608      7.56043        -1.287393     -0.763155     -1.992697
N      8.60115      6.01229      7.53428         2.271985     -0.219842      0.382533
N     12.61080      0.77310     10.97660         3.141158     -0.973531      2.589582
N     11.07307      1.06011      9.83546        -0.318184     -1.600309      2.476653
N     12.31837      2.60408      7.78236         1.287393     -0.763155      1.992697
N     11.07808      2.31029      7.80851        -2.271985     -0.219842     -0.382533
O      5.13466      3.74124      2.58230         5.918234      0.445183      2.924664
O      8.20539      1.63657      6.66707         5.965576     -1.455367      0.327930
O      4.59617      0.20628      2.83544        -1.304132     -0.517316     -1.214506
O      1.42508      0.03924      6.67064        -5.918234      0.445183     -2.924664
O     11.47383      5.33857      8.67572        -5.965576     -1.455367     -0.327930
O      1.96358      3.90828      6.41749         1.304132     -0.517316      1.214506
O      7.98482      3.66276      9.71557        -5.918234     -0.445183     -2.924664
O      4.91409      5.76743      5.63079        -5.965576      1.455367     -0.327930
O      8.52332      7.19772      9.46242         1.304132      0.517316      1.214506
O     11.69440      7.36476      5.62723         5.918234     -0.445183      2.924664
O      1.64565      2.06543      3.62214         5.965576      1.455367      0.327930
O     11.15591      3.49572      5.88037        -1.304132      0.517316     -1.214506
