44
# total energy = -293.12718336 eVH      8.31101      8.49984      1.83721         3.652816     -3.485687      6.754336
H      8.36539      8.99171      0.34186         4.720703      1.108186     -7.903754
H      2.37457      5.46245      4.02706         9.051463     11.539990     -3.789104
H      1.30511      4.50302      3.67371        -7.384698     -4.111157     -7.279291
H      0.75225      1.42933      0.65294        -3.652816      3.485687     -6.754336
H      0.69787      0.93746      2.14829        -4.720703     -1.108186      7.903754
H      6.68868      4.46673     -1.53691        -9.051463    -11.539990      3.789104
H      7.75815      5.42615     -1.18356         7.384698      4.111157      7.279291
C      6.77406      1.55683      2.37757        -0.982197      0.196438      0.724042
C      2.01068      4.26365      5.40156         0.274731     -0.378141      1.126456
C      2.28920      8.37234      0.11258         0.982197     -0.196438     -0.724042
C      7.05257      5.66552     -2.91140        -0.274731      0.378141     -1.126456
N      6.00332      2.19829      1.50438        -0.166693      0.122765     -0.086385
N      7.94684      8.86157      1.10764        -6.837893      1.801269      0.779664
N      6.48403      2.39026      0.25416        -0.519236      0.008183      0.529139
N      6.24467      1.42732      3.65846        -0.613694      0.280514      0.051853
N      5.09808      1.92433      3.79005         3.796653     -1.507938     -0.845150
N      4.09704      2.30618      4.08172        -3.496404      1.324575      1.016326
N      1.32895      3.27289      5.97950         0.222803      0.102202      0.095984
N      1.87655      4.82684      4.23521        -1.902284     -6.861328      9.574812
N      0.32147      2.70222      5.27945         0.440716      0.157733      0.345145
N      3.03166      4.82019     -0.96736         0.034759     -0.186880      0.531835
N      3.06791      4.38438      0.21082        -0.348508      1.139191     -3.825893
N      3.21447      4.10502      1.27509         0.515796     -0.930723      3.639609
N      3.05994      7.73088      0.98577         0.166693     -0.122765      0.086385
N      1.11641      1.06761      1.38251         6.837893     -1.801269     -0.779664
N      2.57922      7.53891      2.23599         0.519236     -0.008183     -0.529139
N      2.81858      8.50185     -1.16831         0.613694     -0.280514     -0.051853
N      3.96517      8.00484     -1.29990        -3.796653      1.507938      0.845150
N      4.96621      7.62299     -1.59157         3.496404     -1.324575     -1.016326
N      7.73431      6.65628     -3.48935        -0.222803     -0.102202     -0.095984
N      7.18671      5.10233     -1.74506         1.902284      6.861328     -9.574812
N      8.74178      7.22695     -2.78930        -0.440716     -0.157733     -0.345145
N      6.03160      5.10898      3.45751        -0.034759      0.186880     -0.531835
N      5.99534      5.54479      2.27933         0.348508     -1.139191      3.825893
N      5.84879      5.82415      1.21506        -0.515796      0.930723     -3.639609
O      5.70151      2.96607     -0.51077        -1.017343      0.708333     -0.800327
O      7.59999      2.03269     -0.11464         1.495159     -0.562008     -0.233495
O      8.73662      3.93310      2.40954        -0.762939     -1.126080      1.037664
O      0.05982      2.98714      4.10936        -0.109180      0.546357     -1.486235
O      3.36174      6.96310      3.00092         1.017343     -0.708333      0.800327
O      1.46326      7.89649      2.60479        -1.495159      0.562008      0.233495
O      0.32664      5.99607      0.08061         0.762939      1.126080     -1.037664
O      9.00344      6.94204     -1.61921         0.109180     -0.546357      1.486235
