38
# total energy = -218.61810841 eVH      3.53161      1.49741      2.10881        -0.047258     -0.013490      0.014136
H      3.83915      2.84972      1.07857         0.087352     -0.073684     -0.145854
H      2.77631      3.01032      2.37405         0.046129      0.041385     -0.135542
H      2.34914      2.06419      1.01564        -0.199770     -0.135638     -0.093767
H      3.20130     10.13623     -0.10946         0.121260     -0.073587      0.061449
H      4.48539      8.81159      2.10881         0.047258      0.013490      0.014136
H      4.17785      7.45928      1.07857        -0.087352      0.073684     -0.145854
H      5.24069      7.29868      2.37405        -0.046129     -0.041385     -0.135542
H      5.66786      8.24481      1.01564         0.199770      0.135638     -0.093767
H      4.81570      0.17277     -0.10946        -0.121260      0.073587      0.061449
H      0.47689      6.65191      1.62619         0.047258     -0.013490     -0.014136
H      0.16935      8.00422      2.65643        -0.087352     -0.073684      0.145854
H      1.23219      8.16482      1.36095        -0.046129      0.041385      0.135542
H      1.65936      7.21869      2.71936         0.199770     -0.135638      0.093767
H      0.80720      4.98173      0.10946        -0.121260     -0.073587     -0.061449
H      7.54011      3.65709      1.62619        -0.047258      0.013490     -0.014136
H      7.84765      2.30478      2.65643         0.087352      0.073684      0.145854
H      6.78481      2.14418      1.36095         0.046129     -0.041385      0.135542
H      6.35764      3.09031      2.71936        -0.199770      0.135638      0.093767
H      7.20980      5.32727      0.10946         0.121260      0.073587     -0.061449
C      0.75128      0.24031      0.26001        -0.085275      0.102352     -0.016227
C      7.26572     10.06869      0.26001         0.085275     -0.102352     -0.016227
C      3.25722      5.39481      3.47499         0.085275      0.102352      0.016227
C      4.75978      4.91419      3.47499        -0.085275     -0.102352      0.016227
N      3.12417      2.34273      1.64584         0.151398      0.060020      0.249472
N      4.89283      7.96627      1.64584        -0.151398     -0.060020      0.249472
N      0.88433      7.49723      2.08916        -0.151398      0.060020     -0.249472
N      7.13267      2.81177      2.08916         0.151398     -0.060020     -0.249472
O      1.64057      9.69046      0.53406         0.043702     -0.036425     -0.042419
O      0.96825      1.46392     -0.00351        -0.061540     -0.040090     -0.039564
O      6.37643      0.61854      0.53406        -0.043702      0.036425     -0.042419
O      7.04875      8.84508     -0.00351         0.061540      0.040090     -0.039564
O      2.36793      4.53596      3.20094        -0.043702     -0.036425      0.042419
O      3.04025      6.61842      0.00351         0.061540     -0.040090      0.039564
O      5.64907      5.77304      3.20094         0.043702      0.036425      0.042419
O      4.97675      3.69058      0.00351        -0.061540      0.040090      0.039564
O      4.00850      0.00000      3.06239         0.000000      0.000000     -0.197923
O     -0.00000      5.15450      0.67261         0.000000      0.000000      0.197923
