16
# total energy = -102.51097072 eVC      2.52476      0.96544      1.82838        -0.228902      0.081963      0.526544
C      2.81123      5.49544      1.22073         0.228902      0.081963     -0.526544
C      1.03257      8.09456      4.87103         0.228902     -0.081963     -0.526544
C      0.74610      3.56456      5.47868        -0.228902     -0.081963      0.526544
N      0.01300      0.60989     -0.03326        -0.123788      2.144199      0.519089
N     -0.24354      1.82838      0.61591        -0.211545     -0.183558      0.176415
N      1.76566      5.13989      3.38297         0.123788      2.144199     -0.519089
N      2.02220      6.35838      2.73379         0.211545     -0.183558     -0.176415
N     -0.01300      8.45011      0.03326         0.123788     -2.144199     -0.519089
N      0.24354      7.23162      6.38409         0.211545      0.183558     -0.176415
N      1.79166      3.92011      3.31644        -0.123788     -2.144199      0.519089
N      1.53512      2.70162      3.96562        -0.211545      0.183558      0.176415
O      2.78395      1.88485      1.43391         0.109986      0.564493     -0.097778
O      2.55203      6.41485      1.61520        -0.109986      0.564493      0.097778
O      0.77337      7.17515      5.26550        -0.109986     -0.564493      0.097778
O      1.00529      2.64515      5.08421         0.109986     -0.564493     -0.097778
