40
# total energy = -224.78042708 eVH      6.12679      1.31664      6.12829        -0.048353     -0.014341      0.029506
H      4.92999      3.04600      4.95124        -0.069842     -0.044596      0.004839
H      5.83527      4.24190      3.95872        -0.016228      0.104849     -0.060189
H      5.81737      4.37348      5.76161         0.074549     -0.096074     -0.001176
H      6.13346      1.33235      3.68662         0.033754      0.068058      0.068184
H      4.41641      4.17476      1.77559         0.048353      0.014341      0.029506
H      5.61321      2.44540      0.59854         0.069842      0.044596      0.004839
H      4.70793      1.24950      8.31142         0.016228     -0.104849     -0.060189
H      4.72583      1.11792      1.40891        -0.074549      0.096074     -0.001176
H      4.40974      4.15905      8.03932        -0.033754     -0.068058      0.068184
H      2.61239      4.17476      1.77559        -0.048353      0.014341      0.029506
H      1.41559      2.44540      0.59854        -0.069842      0.044596      0.004839
H      2.32087      1.24950      8.31142        -0.016228     -0.104849     -0.060189
H      2.30297      1.11792      1.40891         0.074549      0.096074     -0.001176
H      2.61906      4.15905      8.03932         0.033754     -0.068058      0.068184
H      0.90201      1.31664      6.12829         0.048353     -0.014341      0.029506
H      2.09881      3.04600      4.95124         0.069842     -0.044596      0.004839
H      1.19353      4.24190      3.95872         0.016228      0.104849     -0.060189
H      1.21143      4.37348      5.76161        -0.074549     -0.096074     -0.001176
H      0.89534      1.33235      3.68662        -0.033754      0.068058      0.068184
H     -0.00000      2.57252      7.04108        -0.000000      0.131306      0.034565
H     -0.00000      2.63857      2.83700        -0.000000      0.078156     -0.041833
H      3.51440      2.91888      2.68838        -0.000000     -0.131306      0.034565
H      3.51440      2.85283      7.18970        -0.000000     -0.078156     -0.041833
C      5.81070      3.69176      4.90297        -0.019765     -0.059383      0.118416
C      4.73250      1.79964      0.55027         0.019765      0.059383      0.118416
C      2.29630      1.79964      0.55027        -0.019765      0.059383      0.118416
C      1.21810      3.69176      4.90297         0.019765     -0.059383      0.118416
C     -0.00000      4.79816      0.62256        -0.000000      0.017039      0.080286
C     -0.00000      1.93659      6.15290        -0.000000      0.044019     -0.141222
C     -0.00000      1.96642      3.70111        -0.000000     -0.344674     -0.143972
C      3.51440      0.69324      4.97526        -0.000000     -0.017039      0.080286
C      3.51440      3.55481      1.80020        -0.000000     -0.044019     -0.141222
C      3.51440      3.52498     -0.65159        -0.000000      0.344674     -0.143972
N     -0.00000      4.80155      1.82427        -0.000000     -0.071310     -0.018084
N     -0.00000      2.81339      4.93424        -0.000000      0.192241      0.029399
N      3.51440      0.68985      6.17697        -0.000000      0.071310     -0.018084
N      3.51440      2.67801      0.58154        -0.000000     -0.192241      0.029399
O     -0.00000      4.79170      8.09838        -0.000000     -0.026843     -0.118297
O      3.51440      0.69970      3.74568        -0.000000      0.026843     -0.118297
