48
# total energy = -176.68717098 eVC      5.17822      3.15974      7.90766        -0.420206     -0.028360     -0.167421
C      4.73989      1.99329      5.85487        -0.598540      0.259016      0.184072
C      6.13312      1.51993      5.57510         0.761285      0.722695      1.824196
C      7.16906      1.94732      6.66885        -0.419091     -0.102379     -0.308071
C      4.99432      0.80624      3.95800         0.472702     -0.452491     -0.544667
C      1.38153      6.86174      1.34527         0.420206     -0.028360      0.167421
C      1.81985      5.69529      3.39806         0.598540      0.259016     -0.184072
C      0.42662      5.22193      3.67783        -0.761285      0.722695     -1.824196
C     12.51017      5.64932      8.67394         0.419091     -0.102379      0.308071
C      1.56542      4.50824      5.29493        -0.472702     -0.452491      0.544667
C      7.94127      4.24426      4.39020         0.420206      0.028360      0.167421
C      8.37959      5.41071      6.44299         0.598540     -0.259016     -0.184072
C      6.98636      5.88407      6.72276        -0.761285     -0.722695     -1.824196
C      5.95043      5.45668      5.62901         0.419091      0.102379      0.308071
C      8.12517      6.59776      8.33986        -0.472702      0.452491      0.544667
C     11.73796      0.54226     10.95259        -0.420206      0.028360     -0.167421
C     11.29964      1.70871      8.89980        -0.598540     -0.259016      0.184072
C     12.69286      2.18207      8.62003         0.761285     -0.722695      1.824196
C      0.60931      1.75468      3.62392        -0.419091      0.102379     -0.308071
C     11.55406      2.89576      7.00293         0.472702      0.452491     -0.544667
N      6.41889      2.72919      7.75219        -1.767453      1.003677      0.909924
N      4.34984      2.69942      6.85279         0.701604     -0.194292     -0.165092
N      6.15700      1.00083      4.66076        -1.916864     -0.445837     -1.311893
N      4.18584      1.47936      4.77087         1.536743     -0.439834     -0.113404
N      0.14085      6.43119      1.50074         1.767453      1.003677     -0.909924
N      2.20990      6.40142      2.40014        -0.701604     -0.194292      0.165092
N      0.40275      4.70283      4.59217         1.916864     -0.445837      1.311893
N      2.37390      5.18136      4.48206        -1.536743     -0.439834      0.113404
N      6.70059      4.67481      4.54567         1.767453     -1.003677     -0.909924
N      8.76964      4.70458      5.44507        -0.701604      0.194292      0.165092
N      6.96249      6.40317      7.63710         1.916864      0.445837      1.311893
N      8.93364      5.92464      7.52699        -1.536743      0.439834      0.113404
N     12.97864      0.97281     10.79712        -1.767453     -1.003677      0.909924
N     10.90958      1.00258      9.89773         0.701604      0.194292     -0.165092
N     12.71674      2.70117      7.70569        -1.916864      0.445837     -1.311893
N     10.74559      2.22264      7.81580         1.536743      0.439834     -0.113404
O      4.87702      3.79400      2.55911         1.172205      0.024865      0.494699
O      8.18882      1.70809      6.65447         1.122162     -0.549947     -0.021129
O      4.70476      0.24473      2.88976        -0.645007     -0.231984     -0.464743
O      1.68272      0.09200      6.69382        -1.172205      0.024865     -0.494699
O     11.49041      5.41009      8.68832        -1.122162     -0.549947      0.021129
O      1.85498      3.94673      6.36317         0.645007     -0.231984      0.464743
O      8.24246      3.61000      9.73876        -1.172205     -0.024865     -0.494699
O      4.93066      5.69591      5.64339        -1.122162      0.549947      0.021129
O      8.41472      7.15927      9.40810         0.645007      0.231984      0.464743
O     11.43677      7.31200      5.60404         1.172205     -0.024865      0.494699
O      1.62908      1.99391      3.60954         1.122162      0.549947     -0.021129
O     11.26451      3.45727      5.93469        -0.645007      0.231984     -0.464743
