16
# total energy = -91.86996602 eVC      2.58704      0.64860      1.71475         0.102777      2.072495     -0.142425
C      2.74894      5.17860      1.33436        -0.102777      2.072495      0.142425
C      0.97028      8.41140      4.98466        -0.102777     -2.072495      0.142425
C      0.80838      3.88140      5.36505         0.102777     -2.072495     -0.142425
N      0.10760      0.62288      0.10609        -1.142916      1.005740      0.117153
N     -0.10694      1.91019      0.26942        -0.621723     -0.467893      2.508325
N      1.67106      5.15288      3.24362         1.142916      1.005740     -0.117153
N      1.88560      6.44019      3.08029         0.621723     -0.467893     -2.508325
N     -0.10760      8.43712     -0.10609         1.142916     -1.005740     -0.117153
N      0.10694      7.14981      6.73058         0.621723      0.467893     -2.508325
N      1.88626      3.90712      3.45579        -1.142916     -1.005740      0.117153
N      1.67172      2.61981      3.61912        -0.621723      0.467893      2.508325
O      2.67092      1.75668      1.59351         0.888736     -1.168574     -1.904230
O      2.66506      6.28668      1.45560        -0.888736     -1.168574      1.904230
O      0.88640      7.30332      5.10590        -0.888736      1.168574      1.904230
O      0.89226      2.77332      5.24380         0.888736      1.168574     -1.904230
