36
# total energy = -220.88981977 eVH      0.74688      2.40229      2.48518        -0.015982     -0.004136     -0.006491
H      0.45025      3.58776      1.33649         0.004596      0.002848     -0.015435
H      4.61215      7.65529      1.11034        -0.015982     -0.004136     -0.006491
H      4.31552      8.84076     -0.03835         0.004596      0.002848     -0.015435
H      6.98366      2.40229     -1.08886         0.015982     -0.004136      0.006491
H      7.28030      3.58776      0.05983        -0.004596      0.002848      0.015435
H      3.11839      7.65529      0.28598         0.015982     -0.004136      0.006491
H      3.41502      8.84076      1.43467        -0.004596      0.002848      0.015435
H      6.98366      8.10371     -1.08886         0.015982      0.004136      0.006491
H      7.28030      6.91824      0.05983        -0.004596     -0.002848      0.015435
H      3.11839      2.85071      0.28598         0.015982      0.004136      0.006491
H      3.41502      1.66524      1.43467        -0.004596     -0.002848      0.015435
H      0.74688      8.10371      2.48518        -0.015982      0.004136     -0.006491
H      0.45025      6.91824      1.33649         0.004596     -0.002848     -0.015435
H      4.61215      2.85071      1.11034        -0.015982      0.004136     -0.006491
H      4.31552      1.66524     -0.03835         0.004596     -0.002848     -0.015435
C      2.16197      5.25300     -0.19530         0.006635     -0.000000      0.023732
C      3.35828      5.25300     -1.03646         0.098697     -0.000000     -0.068081
C      6.02724      0.00000     -1.57014         0.006635     -0.000000      0.023732
C      7.22355      0.00000     -2.41130         0.098697     -0.000000     -0.068081
C      5.56858      5.25300      1.59162        -0.006635     -0.000000     -0.023732
C      4.37226      5.25300      2.43277        -0.098697     -0.000000      0.068081
C      1.70330      0.00000      2.96646        -0.006635     -0.000000     -0.023732
C      0.50699      0.00000      3.80762        -0.098697     -0.000000      0.068081
N     -0.00000      3.00066      2.07300         0.000000     -0.034305      0.000000
N      3.86527      8.25366      0.69816         0.000000     -0.034305      0.000000
N     -0.00000      7.50534      2.07300         0.000000      0.034305      0.000000
N      3.86527      2.25234      0.69816         0.000000      0.034305      0.000000
O      1.70355      6.39118      0.13185         0.021893      0.005855      0.029479
O      5.56883      1.13818     -1.24300         0.021893      0.005855      0.029479
O      6.02699      6.39118      1.26447        -0.021893      0.005855     -0.029479
O      2.16172      1.13818      2.63931        -0.021893      0.005855     -0.029479
O      6.02699      4.11482      1.26447        -0.021893     -0.005855     -0.029479
O      2.16172      9.36782      2.63931        -0.021893     -0.005855     -0.029479
O      1.70355      4.11482      0.13185         0.021893     -0.005855      0.029479
O      5.56883      9.36782     -1.24300         0.021893     -0.005855      0.029479
