16
# total energy = -86.49107106 eVC      2.77056      0.54423      1.40693        -0.882303      1.168750      1.759521
C      2.56543      5.07423      1.64218         0.882303      1.168750     -1.759521
C      0.78676      8.51577      5.29247         0.882303     -1.168750     -1.759521
C      0.99190      3.98577      5.05723        -0.882303     -1.168750      1.759521
N     -0.14144      0.58523      0.15609         0.180062      7.438794      0.759493
N      0.02372      1.91516      0.22923        -0.675877     -0.880930      0.439843
N      1.92011      5.11523      3.19361        -0.180062      7.438794     -0.759493
N      1.75494      6.44516      3.12047         0.675877     -0.880930     -0.439843
N      0.14144      8.47477     -0.15609        -0.180062     -7.438794     -0.759493
N     -0.02372      7.14484      6.77077         0.675877      0.880930     -0.439843
N      1.63722      3.94477      3.50579         0.180062     -7.438794      0.759493
N      1.80238      2.61484      3.57893        -0.675877      0.880930      0.439843
O      2.51248      1.58132      1.87505         0.676609      0.211141     -1.501205
O      2.82350      6.11132      1.17406        -0.676609      0.211141      1.501205
O      1.04484      7.47868      4.82435        -0.676609     -0.211141      1.501205
O      0.73382      2.94868      5.52535         0.676609     -0.211141     -1.501205
