40
# total energy = -224.80038938 eVH      6.12471      1.32454      6.13161         0.061850      0.081826      0.027361
H      4.92465      3.04124      4.95472         0.043816      0.038128     -0.004449
H      5.82357      4.25752      3.96995        -0.014042      0.064963     -0.037319
H      5.82553      4.36041      5.77660         0.028999     -0.092205     -0.039767
H      6.13136      1.32325      3.68456        -0.016314      0.007634      0.044208
H      4.41849      4.16686      1.77891        -0.061850     -0.081826      0.027361
H      5.61855      2.45016      0.60202        -0.043816     -0.038128     -0.004449
H      4.71963      1.23388      8.32265         0.014042     -0.064963     -0.037319
H      4.71767      1.13099      1.42390        -0.028999      0.092205     -0.039767
H      4.41184      4.16815      8.03726         0.016314     -0.007634      0.044208
H      2.61031      4.16686      1.77891         0.061850     -0.081826      0.027361
H      1.41025      2.45016      0.60202         0.043816     -0.038128     -0.004449
H      2.30917      1.23388      8.32265        -0.014042     -0.064963     -0.037319
H      2.31113      1.13099      1.42390         0.028999      0.092205     -0.039767
H      2.61696      4.16815      8.03726        -0.016314     -0.007634      0.044208
H      0.90409      1.32454      6.13161        -0.061850      0.081826      0.027361
H      2.10415      3.04124      4.95472        -0.043816      0.038128     -0.004449
H      1.20523      4.25752      3.96995         0.014042      0.064963     -0.037319
H      1.20327      4.36041      5.77660        -0.028999     -0.092205     -0.039767
H      0.89744      1.32325      3.68456         0.016314      0.007634      0.044208
H     -0.00000      2.59855      7.03099        -0.000000      0.043131     -0.023486
H     -0.00000      2.62335      2.82190        -0.000000      0.062561     -0.056960
H      3.51440      2.89285      2.67829        -0.000000     -0.043131     -0.023486
H      3.51440      2.86805      7.17460        -0.000000     -0.062561     -0.056960
C      5.80674      3.69203      4.90642        -0.013748     -0.095692      0.084951
C      4.73646      1.79937      0.55372         0.013748      0.095692      0.084951
C      2.29234      1.79937      0.55372        -0.013748      0.095692      0.084951
C      1.22206      3.69203      4.90642         0.013748     -0.095692      0.084951
C     -0.00000      4.79338      0.61966        -0.000000     -0.037522     -0.263901
C     -0.00000      1.94984      6.14808        -0.000000     -0.131051     -0.029882
C     -0.00000      1.94937      3.68411        -0.000000      0.111157      0.261203
C      3.51440      0.69802      4.97236        -0.000000      0.037522     -0.263901
C      3.51440      3.54156      1.79538        -0.000000      0.131051     -0.029882
C      3.51440      3.54203     -0.66859        -0.000000     -0.111157      0.261203
N     -0.00000      4.78485      1.82043        -0.000000     -0.037513      0.021817
N     -0.00000      2.81788      4.92682        -0.000000     -0.081247     -0.246188
N      3.51440      0.70655      6.17313        -0.000000      0.037513      0.021817
N      3.51440      2.67352      0.57412        -0.000000      0.081247     -0.246188
O     -0.00000      4.78816      8.09076        -0.000000      0.004790      0.187426
O      3.51440      0.70324      3.73806        -0.000000     -0.004790      0.187426
