16
# total energy = -97.33160181 eVH      1.45352      4.28452      1.39826         0.040675      0.040675      0.051809
H      0.79823      3.62923     -0.09052        -0.027421     -0.027421     -0.008366
H      4.20848      1.37748      1.39826        -0.040675     -0.040675      0.051809
H      4.86377      2.03277     -0.09052         0.027421      0.027421     -0.008366
H      4.28452      4.20848      3.31774         0.040675     -0.040675     -0.051809
H      3.62923      4.86377      0.09052        -0.027421      0.027421      0.008366
H      1.37748      1.45352      3.31774        -0.040675      0.040675     -0.051809
H      2.03277      0.79823      0.09052         0.027421     -0.027421      0.008366
C     -0.00000      2.83100      1.64019         0.000000     -0.000000     -0.145065
C      2.83100      0.00000      3.07581         0.000000     -0.000000      0.145065
N      0.81431      3.64531      0.92868        -0.059708     -0.059708     -0.029100
N      4.84769      2.01669      0.92868         0.059708      0.059708     -0.029100
N      3.64531      4.84769      3.78732        -0.059708      0.059708      0.029100
N      2.01669      0.81431      3.78732         0.059708     -0.059708      0.029100
O     -0.00000      2.83100      2.91528         0.000000     -0.000000     -0.093218
O      2.83100      0.00000      1.80072         0.000000     -0.000000      0.093218
