38
# total energy = -218.68931681 eVH      3.51610      1.49402      2.13286        -0.039234      0.098881     -0.055855
H      3.85078      2.80107      1.03098        -0.033334     -0.069534      0.001519
H      2.79840      3.04262      2.33665         0.074520     -0.039216     -0.133385
H      2.33287      2.03718      1.02606         0.096852      0.036681      0.073017
H      3.22706     10.10048     -0.11702        -0.168015     -0.015743      0.009296
H      4.50090      8.81498      2.13286         0.039234     -0.098881     -0.055855
H      4.16622      7.50793      1.03098         0.033334      0.069534      0.001519
H      5.21860      7.26638      2.33665        -0.074520      0.039216     -0.133385
H      5.68413      8.27182      1.02606        -0.096852     -0.036681      0.073017
H      4.78994      0.20852     -0.11702         0.168015      0.015743      0.009296
H      0.49240      6.64852      1.60214         0.039234      0.098881      0.055855
H      0.15772      7.95557      2.70402         0.033334     -0.069534     -0.001519
H      1.21010      8.19712      1.39835        -0.074520     -0.039216      0.133385
H      1.67563      7.19168      2.70894        -0.096852      0.036681     -0.073017
H      0.78144      4.94598      0.11702         0.168015     -0.015743     -0.009296
H      7.52460      3.66048      1.60214        -0.039234     -0.098881      0.055855
H      7.85928      2.35343      2.70402        -0.033334      0.069534     -0.001519
H      6.80690      2.11188      1.39835         0.074520      0.039216      0.133385
H      6.34137      3.11732      2.70894         0.096852     -0.036681     -0.073017
H      7.23556      5.36302      0.11702        -0.168015      0.015743     -0.009296
C      0.74686      0.24342      0.25105        -0.012024      0.080318     -0.045830
C      7.27014     10.06558      0.25105         0.012024     -0.080318     -0.045830
C      3.26164      5.39792      3.48395         0.012024      0.080318      0.045830
C      4.75536      4.91108      3.48395        -0.012024     -0.080318      0.045830
N      3.13096      2.33501      1.63628        -0.144425     -0.070535      0.027075
N      4.88604      7.97399      1.63628         0.144425      0.070535      0.027075
N      0.87754      7.48951      2.09872         0.144425     -0.070535     -0.027075
N      7.13946      2.81949      2.09872        -0.144425      0.070535     -0.027075
O      1.64234      9.69765      0.51841         0.016285     -0.064941      0.035877
O      0.95315      1.46781     -0.01536         0.058658      0.013101      0.031750
O      6.37466      0.61135      0.51841        -0.016285      0.064941      0.035877
O      7.06385      8.84119     -0.01536        -0.058658     -0.013101      0.031750
O      2.36616      4.54315      3.21659        -0.016285     -0.064941     -0.035877
O      3.05535      6.62231      0.01536        -0.058658      0.013101     -0.031750
O      5.65084      5.76585      3.21659         0.016285      0.064941     -0.035877
O      4.96165      3.68669      0.01536         0.058658     -0.013101     -0.031750
O      4.00850      0.00000      3.03781        -0.000000      0.000000     -0.063732
O     -0.00000      5.15450      0.69719        -0.000000      0.000000      0.063732
