12
# total energy = -76.47966960 eVC      2.39109      1.30750      0.84598        -0.023107      0.000000      0.088845
C      3.01891      3.92250      2.63098         0.023107     -0.000000      0.088845
C      8.42891      3.92250      2.72402         0.023107     -0.000000     -0.088845
C      7.80109      1.30750      0.93902        -0.023107      0.000000     -0.088845
N     -1.11470      1.30750     -0.12785         0.029849      0.000000     -0.020567
N      6.52470      3.92250      1.65715        -0.029849      0.000000     -0.020567
N      1.11470      3.92250      0.12785        -0.029849     -0.000000      0.020567
N      4.29530      1.30750      1.91285         0.029849      0.000000      0.020567
O      3.23092      1.30750      1.40994        -0.026946     -0.000000     -0.102854
O      2.17908      3.92250      3.19494         0.026946     -0.000000     -0.102854
O      7.58908      3.92250      2.16006         0.026946     -0.000000      0.102854
O      8.64092      1.30750      0.37506        -0.026946      0.000000      0.102854
