30
# total energy = -132.82842469 eVH      0.75606      2.50042      4.80198        -0.021875     -0.416375     -0.583809
H      0.72644      2.45481      1.99109        -0.241658      0.963852     -0.164231
H      0.22051     -0.09711      0.52829        -1.347192     -1.168056     -0.315238
H      2.73694      9.16182     -0.48626         0.021875     -0.416375      0.583809
H      2.76656      9.11621      2.32464         0.241658      0.963852      0.164231
H     -0.22051      6.56429     -0.52829         1.347192     -1.168056      0.315238
H      2.73694     10.82238     -0.48626         0.021875      0.416375      0.583809
H      2.76656     10.86799      2.32464         0.241658     -0.963852      0.164231
H     -0.22051      0.09711     -0.52829         1.347192      1.168056      0.315238
H      0.75606      4.16098      4.80198        -0.021875      0.416375     -0.583809
H      0.72644      4.20659      1.99109        -0.241658     -0.963852     -0.164231
H      0.22051      6.75851      0.52829        -1.347192      1.168056     -0.315238
H      2.82621      3.33070      0.55286        -0.164196     -0.000000     -0.130490
H      0.66680      9.99210      3.76286         0.164196     -0.000000      0.130490
C      2.05774      0.38460      2.61567         0.021269     -4.376938     -1.001139
C      1.43526      7.04600      1.70005        -0.021269     -4.376938      1.001139
C      1.43526     12.93820      1.70005        -0.021269      4.376938      1.001139
C      2.05774      6.27680      2.61567         0.021269      4.376938     -1.001139
N      1.13700      3.33070      0.14589        -0.832329     -0.000000      2.126840
N      0.38749      3.33070      1.48973         1.521426     -0.000000     -0.297403
N      2.35600      9.99210      4.16984         0.832329     -0.000000     -2.126840
N      3.10551      9.99210      2.82599        -1.521426     -0.000000      0.297403
O      2.09191      1.62901      2.99516         0.393321      0.969090      0.632358
O      2.98738     12.62309      3.32418        -1.021032      0.944327     -0.769071
O      1.40109      8.29041      1.32057        -0.393321      0.969090     -0.632358
O      0.50563      5.96169      0.99154         1.021032      0.944327      0.769071
O      1.40109     11.69379      1.32057        -0.393321     -0.969090     -0.632358
O      0.50563      0.69971      0.99154         1.021032     -0.944327      0.769071
O      2.09191      5.03239      2.99516         0.393321     -0.969090      0.632358
O      2.98738      7.36111      3.32418        -1.021032     -0.944327     -0.769071
