56
# total energy = -353.14245188 eVH      5.15461      2.28090      4.07266         0.145085      0.064138     -0.024613
H      6.56709      1.99332      5.14000        -0.182363     -0.046576     -0.231876
H      3.08654      1.99402      4.85977        -0.128209      0.075453     -0.150265
H      2.78204      1.29246      6.43775        -0.028283     -0.035997     -0.013036
H      5.22673      5.55665      1.55352        -0.145085      0.064138      0.024613
H      3.81425      5.26907      0.48618         0.182363     -0.046576      0.231876
H      0.37391      5.26977      0.77365         0.128209      0.075453      0.150265
H      0.67840      4.56821     10.46977         0.028283     -0.035997      0.013036
H      1.76628      4.27060      7.19420        -0.145085     -0.064138      0.024613
H      0.35380      4.55818      6.12685         0.182363      0.046576      0.231876
H      3.83436      4.55748      6.40708         0.128209     -0.075453      0.150265
H      4.13885      5.25904      4.82910         0.028283      0.035997      0.013036
H      1.69417      0.99485      9.71333         0.145085     -0.064138     -0.024613
H      3.10665      1.28243     10.78067        -0.182363      0.046576     -0.231876
H      6.54699      1.28173     10.49320        -0.128209     -0.075453     -0.150265
H      6.24249      1.98329      0.79708        -0.028283      0.035997     -0.013036
C      5.31597      1.10132      7.19329        -0.049746      0.004865      0.035289
C      4.75421      1.56991      5.93311         0.015128      0.023550     -0.013452
C      5.06538      4.37707      9.70699         0.049746      0.004865     -0.035289
C      5.62714      4.84566     10.96716        -0.015128      0.023550      0.013452
C      1.60493      5.45018      4.07356         0.049746     -0.004865     -0.035289
C      2.16669      4.98159      5.33374        -0.015128     -0.023550      0.013452
C      1.85552      2.17443      1.55986        -0.049746     -0.004865      0.035289
C      1.29376      1.70584      0.29969         0.015128     -0.023550     -0.013452
N      6.68886      0.94322      7.42364         0.073869      0.007119     -0.006141
N      4.45123      0.83137      8.27791        -0.045614      0.004252      0.073286
N      5.55843      1.96152      4.95627        -0.001489      0.022574      0.016766
N      3.43718      1.67216      5.75782         0.170840     -0.102734      0.143168
N      3.69249      4.21897      9.47664        -0.073869      0.007119      0.006141
N      5.93011      4.10712      8.62237         0.045614      0.004252     -0.073286
N      4.82292      5.23727      0.66991         0.001489      0.022574     -0.016766
N      0.02326      4.94791     11.14971        -0.170840     -0.102734     -0.143168
N      0.23204      5.60828      3.84321        -0.073869     -0.007119      0.006141
N      2.46966      5.72013      2.98894         0.045614     -0.004252     -0.073286
N      1.36247      4.58998      6.31058         0.001489     -0.022574     -0.016766
N      3.48371      4.87934      5.50904        -0.170840      0.102734     -0.143168
N      3.22841      2.33253      1.79021         0.073869     -0.007119     -0.006141
N      0.99078      2.44438      2.64448        -0.045614     -0.004252      0.073286
N      2.09798      1.31423     10.59694        -0.001489     -0.022574      0.016766
N     -0.02326      1.60359      0.12439         0.170840      0.102734      0.143168
O      0.17119      0.37304      8.47842         0.033838      0.091594     -0.106550
O      0.58107      1.32200      6.53670        -0.002221     -0.050570      0.172397
O      3.30698      0.37153      8.03156         0.087692      0.061400      0.079671
O      4.81770      1.08617      9.45011        -0.079563     -0.083897     -0.029045
O      3.28926      3.64879      8.42911        -0.033838      0.091594      0.106550
O      2.87938      4.59775     10.37082         0.002221     -0.050570     -0.172397
O      0.15347      3.64728      8.87596        -0.087692      0.061400     -0.079671
O      5.56364      4.36192      7.45017         0.079563     -0.083897      0.029045
O      6.74971      6.17846      2.78843        -0.033838     -0.091594      0.106550
O      6.33983      5.22950      4.73015         0.002221      0.050570     -0.172397
O      3.61392      6.17997      3.23529        -0.087692     -0.061400     -0.079671
O      2.10320      5.46533      1.81674         0.079563      0.083897      0.029045
O      3.63164      2.90271      2.83775         0.033838     -0.091594     -0.106550
O      4.04151      1.95375      0.89603        -0.002221      0.050570      0.172397
O      6.76742      2.90422      2.39089         0.087692     -0.061400      0.079671
O      1.35725      2.18958      3.81669        -0.079563      0.083897     -0.029045
