12
# total energy = -76.48961479 eVC      2.37052      1.30750      0.87436        -0.021073      0.000000      0.023456
C      3.03948      3.92250      2.65936         0.021073      0.000000      0.023456
C      8.44948      3.92250      2.69564         0.021073      0.000000     -0.023456
C      7.78052      1.30750      0.91064        -0.021073      0.000000     -0.023456
N     -1.11451      1.30750     -0.12550         0.036825      0.000000      0.035842
N      6.52451      3.92250      1.65950        -0.036825      0.000000      0.035842
N      1.11451      3.92250      0.12550        -0.036825      0.000000     -0.035842
N      4.29549      1.30750      1.91050         0.036825      0.000000     -0.035842
O      3.24163      1.30750      1.38681        -0.046601      0.000000      0.019039
O      2.16837      3.92250      3.17181         0.046601     -0.000000      0.019039
O      7.57837      3.92250      2.18319         0.046601     -0.000000     -0.019039
O      8.65163      1.30750      0.39819        -0.046601     -0.000000     -0.019039
