36
# total energy = -220.80564788 eVH      0.72928      2.40018      2.50177         0.084519      0.169341     -0.241646
H      0.43037      3.58463      1.32487         0.326630      0.252857     -0.082533
H      4.59455      7.65318      1.12693         0.084519      0.169341     -0.241646
H      4.29564      8.83763     -0.04997         0.326630      0.252857     -0.082533
H      7.00126      2.40018     -1.10545        -0.084519      0.169341      0.241646
H      7.30017      3.58463      0.07145        -0.326630      0.252857      0.082533
H      3.13599      7.65318      0.26939        -0.084519      0.169341      0.241646
H      3.43490      8.83763      1.44629        -0.326630      0.252857      0.082533
H      7.00126      8.10582     -1.10545        -0.084519     -0.169341      0.241646
H      7.30017      6.92137      0.07145        -0.326630     -0.252857      0.082533
H      3.13599      2.85282      0.26939        -0.084519     -0.169341      0.241646
H      3.43490      1.66837      1.44629        -0.326630     -0.252857      0.082533
H      0.72928      8.10582      2.50177         0.084519     -0.169341     -0.241646
H      0.43037      6.92137      1.32487         0.326630     -0.252857     -0.082533
H      4.59455      2.85282      1.12693         0.084519     -0.169341     -0.241646
H      4.29564      1.66837     -0.04997         0.326630     -0.252857     -0.082533
C      2.15957      5.25300     -0.19651        -0.126587     -0.000000      0.106015
C      3.36054      5.25300     -1.03828        -0.505548     -0.000000      0.346482
C      6.02485      0.00000     -1.57135        -0.126587     -0.000000      0.106015
C      7.22581      0.00000     -2.41313        -0.505548     -0.000000      0.346482
C      5.57097      5.25300      1.59283         0.126587     -0.000000     -0.106015
C      4.37000      5.25300      2.43460         0.505548     -0.000000     -0.346482
C      1.70570      0.00000      2.96767         0.126587     -0.000000     -0.106015
C      0.50473      0.00000      3.80944         0.505548     -0.000000     -0.346482
N     -0.00000      3.01519      2.07300        -0.000000     -0.882307     -0.000000
N      3.86527      8.26819      0.69816        -0.000000     -0.882307     -0.000000
N     -0.00000      7.49081      2.07300        -0.000000      0.882307     -0.000000
N      3.86527      2.23781      0.69816        -0.000000      0.882307     -0.000000
O      1.69758      6.39391      0.13212         0.172480     -0.239799     -0.097332
O      5.56285      1.14091     -1.24272         0.172480     -0.239799     -0.097332
O      6.03297      6.39391      1.26420        -0.172480     -0.239799      0.097332
O      2.16770      1.14091      2.63904        -0.172480     -0.239799      0.097332
O      6.03297      4.11209      1.26420        -0.172480      0.239799      0.097332
O      2.16770      9.36509      2.63904        -0.172480      0.239799      0.097332
O      1.69758      4.11209      0.13212         0.172480      0.239799     -0.097332
O      5.56285      9.36509     -1.24272         0.172480      0.239799     -0.097332
