16
# total energy = -87.70181990 eVC      2.75594      0.55728      1.43168        -0.827628      0.857744      1.664215
C      2.58004      5.08728      1.61743         0.827628      0.857744     -1.664215
C      0.80138      8.50272      5.26773         0.827628     -0.857744     -1.664215
C      0.97728      3.97272      5.08198        -0.827628     -0.857744      1.664215
N     -0.11489      0.62383      0.15886         0.654693      1.729330     -0.198250
N      0.01085      1.90348      0.22729        -0.412341      0.989892      0.354283
N      1.89355      5.15383      3.19085        -0.654693      1.729330      0.198250
N      1.76781      6.43348      3.12242         0.412341      0.989892     -0.354283
N      0.11489      8.43617     -0.15886        -0.654693     -1.729330      0.198250
N     -0.01085      7.15652      6.77271         0.412341     -0.989892     -0.354283
N      1.66377      3.90617      3.50856         0.654693     -1.729330     -0.198250
N      1.78952      2.62652      3.57699        -0.412341     -0.989892      0.354283
O      2.52294      1.58844      1.85633         0.703095      0.348628     -1.388631
O      2.81304      6.11844      1.19278        -0.703095      0.348628      1.388631
O      1.03438      7.47156      4.84308        -0.703095     -0.348628      1.388631
O      0.74428      2.94156      5.50662         0.703095     -0.348628     -1.388631
