16
# total energy = -100.68335202 eVC      2.54115      0.98392      1.79755        -1.131445     -3.652956      1.729121
C      2.79484      5.51392      1.25156         1.131445     -3.652956     -1.729121
C      1.01618      8.07608      4.90186         1.131445      3.652956     -1.729121
C      0.76249      3.54608      5.44785        -1.131445      3.652956      1.729121
N      0.00898      0.65686     -0.07610         0.132085     -3.974875      0.740806
N     -0.21562      1.83772      0.59249        -2.218187      0.013231      3.889780
N      1.76968      5.18686      3.42580        -0.132085     -3.974875     -0.740806
N      1.99428      6.36772      2.75722         2.218187      0.013231     -3.889780
N     -0.00898      8.40314      0.07610        -0.132085      3.974875     -0.740806
N      0.21562      7.22228      6.40751         2.218187     -0.013231     -3.889780
N      1.78764      3.87314      3.27360         0.132085      3.974875      0.740806
N      1.56304      2.69228      3.94219        -2.218187     -0.013231      3.889780
O      2.75783      1.84862      1.46818         2.816642      4.396282     -4.763197
O      2.57815      6.37862      1.58093        -2.816642      4.396282      4.763197
O      0.79949      7.21138      5.23123        -2.816642     -4.396282      4.763197
O      0.97917      2.68138      5.11847         2.816642     -4.396282     -4.763197
