48
# total energy = -204.14526279 eVC      4.98787      3.23449      7.95625        -9.747898      0.595691     -2.815093
C      4.50783      2.07711      5.89343        -0.458927     -0.732665     -1.426176
C      6.35668      1.43333      5.57761         1.308911     -0.829551     -0.909366
C      7.30195      1.88299      6.59681        -2.053425      0.869464      0.180105
C      5.07039      0.67723      3.76686         0.838630     -1.448068     -2.121650
C      1.57187      6.93649      1.29668         9.747898      0.595691      2.815093
C      2.05191      5.77911      3.35950         0.458927     -0.732665      1.426176
C      0.20306      5.13533      3.67532        -1.308911     -0.829551      0.909366
C     12.37728      5.58499      8.74598         2.053425      0.869464     -0.180105
C      1.48935      4.37923      5.48607        -0.838630     -1.448068      2.121650
C      8.13161      4.16951      4.34161         9.747898     -0.595691      2.815093
C      8.61165      5.32689      6.40444         0.458927      0.732665      1.426176
C      6.76280      5.97067      6.72025        -1.308911      0.829551      0.909366
C      5.81753      5.52101      5.70105         2.053425     -0.869464     -0.180105
C      8.04909      6.72677      8.53100        -0.838630      1.448068      2.121650
C     11.54762      0.46751     11.00119        -9.747898     -0.595691     -2.815093
C     11.06758      1.62489      8.93836        -0.458927      0.732665     -1.426176
C     12.91642      2.26867      8.62254         1.308911      0.829551     -0.909366
C      0.74221      1.81901      3.55188        -2.053425     -0.869464      0.180105
C     11.63014      3.02477      6.81179         0.838630      1.448068     -2.121650
N      5.98813      2.98519      7.99630         2.768492      1.533399      3.069745
N      4.55125      2.63982      6.79438        -0.589493      1.224729      2.026409
N      5.70022      1.12241      4.77418        10.088855     -1.009384      2.442612
N      4.55609      1.37807      4.75885       -10.437468      1.791613     -0.943015
N      0.57161      6.68719      1.25663        -2.768492      1.533399     -3.069745
N      2.00849      6.34182      2.45855         0.589493      1.224729     -2.026409
N      0.85953      4.82441      4.47875       -10.088855     -1.009384     -2.442612
N      2.00365      5.08007      4.49409        10.437468      1.791613      0.943015
N      7.13135      4.41881      4.30156        -2.768492     -1.533399     -3.069745
N      8.56823      4.76418      5.50348         0.589493     -1.224729     -2.026409
N      7.41927      6.28159      7.52368       -10.088855      1.009384     -2.442612
N      8.56339      6.02593      7.53902        10.437468     -1.791613      0.943015
N     12.54788      0.71681     11.04123         2.768492     -1.533399      3.069745
N     11.11100      1.06218      9.83931        -0.589493     -1.224729      2.026409
N     12.25996      2.57959      7.81911        10.088855      1.009384      2.442612
N     11.11583      2.32393      7.80378       -10.437468     -1.791613     -0.943015
O      5.24319      3.73090      2.60910         5.770811     -0.599691      1.265721
O      8.25257      1.60818      6.67273         2.540401     -0.535352      0.092730
O      4.55973      0.19245      2.81223        -1.168263     -0.500623     -1.271396
O      1.31656      0.02890      6.64383        -5.770811     -0.599691     -1.265721
O     11.42665      5.31018      8.67007        -2.540401     -0.535352     -0.092730
O      2.00001      3.89445      6.44070         1.168263     -0.500623      1.271396
O      7.87630      3.67310      9.68876        -5.770811      0.599691     -1.265721
O      4.86691      5.79582      5.62513        -2.540401      0.535352     -0.092730
O      8.55975      7.21155      9.48564         1.168263      0.500623      1.271396
O     11.80293      7.37510      5.65404         5.770811      0.599691      1.265721
O      1.69283      2.09382      3.62780         2.540401      0.535352      0.092730
O     11.11948      3.50955      5.85716        -1.168263      0.500623     -1.271396
