36
# total energy = -216.69091358 eVH      4.02492      2.35381      2.28157        -0.029701      0.058055      0.022085
H      4.21373      1.56038     -0.04388         0.120066      0.129443      0.095308
H      6.85383      0.93705      0.70309         0.005918     -0.043624      0.150426
H      0.71527      0.61204      3.29702        -0.146785      0.027740     -0.078825
H      6.50928      0.84257      4.27910         0.110379     -0.083886      0.099374
H      4.98236      1.69990      4.25715        -0.005557      0.045575      0.060441
H      4.02492      1.16219      9.46057        -0.029701     -0.058055      0.022085
H      4.21373      1.95562      7.13512         0.120066     -0.129443      0.095308
H      6.85383      2.57895      7.88209         0.005918      0.043624      0.150426
H      0.71527      2.90396     10.47602        -0.146785     -0.027740     -0.078825
H      6.50928      2.67343     11.45810         0.110379      0.083886      0.099374
H      4.98236      1.81610     11.43615        -0.005557     -0.045575      0.060441
C      5.83025      1.37644      2.42022         0.311641     -0.162103     -0.112620
C      5.83025      2.13956      9.59922         0.311641      0.162103     -0.112620
N      1.59539      3.46218      5.44131         0.028803      0.040229     -0.172892
N      1.43087      3.14110      6.78208        -0.144123      0.020620      0.088285
N      2.71096      3.01828      4.80943         0.124197     -0.076310      0.123752
N      4.73540      1.81818      1.77275        -0.129642      0.027779     -0.225214
N      6.88925      0.96404      1.72533        -0.025941     -0.014341      0.008523
N      5.79429      1.33701      3.75406        -0.020145      0.088147     -0.107668
N      1.59539      0.05382     12.62031         0.028803     -0.040229     -0.172892
N      1.43087      0.37490     13.96108        -0.144123     -0.020620      0.088285
N      2.71096      0.49772     11.98843         0.124197      0.076310      0.123752
N      4.73540      1.69782      8.95175        -0.129642     -0.027779     -0.225214
N      6.88925      2.55196      8.90433        -0.025941      0.014341      0.008523
N      5.79429      2.17899     10.93306        -0.020145     -0.088147     -0.107668
O      2.25284      2.57393      7.51281         0.011477     -0.025015     -0.046992
O      0.29810      0.00124      7.17695         0.086547     -0.039919      0.018769
O      3.64786      2.37339      5.34532        -0.143242      0.061930     -0.124251
O      2.71833      3.31518      3.58452        -0.000454     -0.018427      0.065937
O      4.87410      2.14227      0.41976        -0.153438     -0.112058      0.135562
O      2.25284      0.94207      0.33381         0.011477      0.025015     -0.046992
O      0.29810     -0.00124     -0.00205         0.086547      0.039919      0.018769
O      3.64786      1.14261     12.52432        -0.143242     -0.061930     -0.124251
O      2.71833      0.20082     10.76352        -0.000454      0.018427      0.065937
O      4.87410      1.37373      7.59876        -0.153438      0.112058      0.135562
