18
# total energy = -101.78736412 eVH      0.63546      4.22729      9.02768         0.034663     -0.020391      0.040398
H      0.56981      1.22828      0.20031         0.003871      0.017661     -0.025509
H      3.24668      0.49472      8.15548         0.020811      0.015907      0.006007
H      3.17613      0.16231      0.72305        -0.027385     -0.006451      0.014936
H      1.87544      2.56165      6.98400        -0.005347     -0.023893     -0.011052
H      0.63546      0.45171      4.47168         0.034663      0.020391      0.040398
H      0.56981      3.45072      4.75631         0.003871     -0.017661     -0.025509
H      3.24668      4.18428      3.59948         0.020811     -0.015907      0.006007
H      3.17613      4.51669      5.27905        -0.027385      0.006451      0.014936
H      1.87544      2.11735      2.42800        -0.005347      0.023893     -0.011052
C      1.90175      1.72902      6.24307         0.036525     -0.057176      0.061306
C      1.90175      2.94998      1.68707         0.036525      0.057176      0.061306
N      0.00056      0.36958     -0.00296        -0.021232      0.077569     -0.074737
N      0.00056      4.30942      4.55304        -0.021232     -0.077569     -0.074737
O      1.50734      1.97652      5.06320        -0.078318      0.058532     -0.011380
O      2.32934      0.60138      6.65431         0.036412      0.109626      0.000032
O      1.50734      2.70248      0.50720        -0.078318     -0.058532     -0.011380
O      2.32934      4.07762      2.09831         0.036412     -0.109626      0.000032
