44
# total energy = -299.15410551 eVH      8.35782      8.45442      1.92598         0.156564     -0.126123      0.256847
H      8.42263      9.00504      0.24387         0.184008      0.046842     -0.403959
H      2.46659      5.57781      3.99189         0.479324      0.571129     -0.137288
H      1.21204      4.44886      3.58750        -0.218748     -0.209803      0.000918
H      0.70544      1.47476      0.56417        -0.156564      0.126123     -0.256847
H      0.64063      0.92413      2.24628        -0.184008     -0.046842      0.403959
H      6.59667      4.35136     -1.50174        -0.479324     -0.571129      0.137288
H      7.85122      5.48031     -1.09735         0.218748      0.209803     -0.000918
C      6.73832      1.56816      2.39188         0.946433     -0.472749     -0.208669
C      2.01906      4.24207      5.45006        -0.178780      0.819082     -1.786130
C      2.32493      8.36101      0.09828        -0.946433      0.472749      0.208669
C      7.04420      5.68710     -2.95991         0.178780     -0.819082      1.786130
N      5.99213      2.20687      1.49584        -0.470135      0.286990     -0.148911
N      7.91378      8.86371      1.10479         0.460776     -0.235606      0.082530
N      6.47897      2.39003      0.26045         0.037273      0.142980     -0.404910
N      6.23546      1.43090      3.66359        -0.197877      0.055315      0.216409
N      5.10717      1.91869      3.79529        -1.295303      0.404401      0.680940
N      4.07560      2.31414      4.08783         0.381613     -0.161375     -0.093964
N      1.32399      3.25836      5.99302        -0.094019     -0.471150      0.509208
N      1.87013      4.81027      4.26671        -0.196182     -0.166036     -0.140245
N      0.32642      2.70255      5.28460        -0.391604     -0.353440     -0.110799
N      3.03702      4.81925     -0.95752         0.153222     -0.064104      0.258591
N      3.07368      4.39146      0.20410         0.519894     -0.141320      1.453737
N      3.21758      4.09955      1.29779        -0.037160      0.108565     -0.330802
N      3.07112      7.72230      0.99431         0.470135     -0.286990      0.148911
N      1.14947      1.06546      1.38536        -0.460776      0.235606     -0.082530
N      2.58429      7.53914      2.22970        -0.037273     -0.142980      0.404910
N      2.82779      0.63837     -0.02540         0.197877     -0.055315     -0.216409
N      3.95609      8.01049     -1.30514         1.295303     -0.404401     -0.680940
N      4.98765      7.61503     -1.59767        -0.381613      0.161375      0.093964
N      7.73927      6.67082     -3.50287         0.094019      0.471150     -0.509208
N      7.19313      5.11890     -1.77656         0.196182      0.166036      0.140245
N      8.73684      7.22662     -2.79445         0.391604      0.353440      0.110799
N      6.02623      5.10992      3.44767        -0.153222      0.064104     -0.258591
N      5.98957      5.53771      2.28605        -0.519894      0.141320     -1.453737
N      5.84568      5.82962      1.19236         0.037160     -0.108565      0.330802
O      5.68538      2.97949     -0.52496         0.036557      0.042330     -0.062906
O      7.62099      2.02496     -0.11764        -0.143034      0.034514      0.075953
O      8.72556      3.91563      2.42668        -0.020569     -0.037573      0.029553
O      0.05776      2.99396      4.08749         0.098158     -0.063021      0.223547
O      3.37787      6.94968      3.01511        -0.036557     -0.042330      0.062906
O      1.44227      7.90421      2.60779         0.143034     -0.034514     -0.075953
O      0.33769      6.01354      0.06347         0.020569      0.037573     -0.029553
O      9.00549      6.93521     -1.59734        -0.098158      0.063021     -0.223547
