36
# total energy = -216.48926602 eVH      4.06820      2.36952      2.29408        -0.387230      0.147472     -0.208162
H      4.21610      1.52408     -0.12016         0.127395      0.142721      0.555690
H      6.92127      1.00822      0.68825        -0.206573     -0.096962     -0.051191
H      0.64145      0.62835      3.35140         0.131962      0.014897     -0.411327
H      6.49144      0.81305      4.29726        -0.157862      0.226207     -0.372155
H      4.96893      1.65428      4.24916        -0.018636      0.099001      0.034610
H      4.06820      1.14648      9.47308        -0.387230     -0.147472     -0.208162
H      4.21610      1.99192      7.05884         0.127395     -0.142721      0.555690
H      6.92127      2.50778      7.86725        -0.206573      0.096962     -0.051191
H      0.64145      2.88765     10.53040         0.131962     -0.014897     -0.411327
H      6.49144      2.70295     11.47626        -0.157862     -0.226207     -0.372155
H      4.96893      1.86172     11.42816        -0.018636     -0.099001      0.034610
C      5.81708      1.38907      2.40539         0.117135     -0.206157     -0.266273
C      5.81708      2.12693      9.58439         0.117135      0.206157     -0.266273
N      1.57436      3.43354      5.43429         0.201254     -0.012950      0.015598
N      1.44069      3.14221      6.78895        -0.088856      0.049576     -0.075309
N      2.71724      3.01704      4.82881        -0.166182      0.084468     -0.081817
N      4.70090      1.78008      1.74597        -0.100543     -0.031659      0.476428
N      6.87090      0.99850      1.70428         0.514773     -0.252096      0.842846
N      5.81755      1.37430      3.75446        -0.022184     -0.130718     -0.278875
N      1.57436      0.08246     12.61329         0.201254      0.012950      0.015598
N      1.44069      0.37379     13.96795        -0.088856     -0.049576     -0.075309
N      2.71724      0.49896     12.00781        -0.166182     -0.084468     -0.081817
N      4.70090      1.73592      8.92497        -0.100543      0.031659      0.476428
N      6.87090      2.51750      8.88328         0.514773      0.252096      0.842846
N      5.81755      2.14170     10.93346        -0.022184      0.130718     -0.278875
O      2.28687      2.60211      7.50834        -0.088735     -0.049699      0.081039
O      0.31363     -0.00696      7.19845        -0.127014      0.024427      0.066870
O      3.66535      2.41692      5.38508         0.129983     -0.136158     -0.135034
O      2.73160      3.29010      3.60168         0.030446      0.029576     -0.059582
O      4.83347      2.11454      0.40290         0.110867      0.084793     -0.133357
O      2.28687      0.91389      0.32934        -0.088735      0.049699      0.081039
O      0.31363      0.00696      0.01945        -0.127014     -0.024427      0.066870
O      3.66535      1.09908     12.56408         0.129983      0.136158     -0.135034
O      2.73160      0.22590     10.78068         0.030446     -0.029576     -0.059582
O      4.83347      1.40146      7.58190         0.110867     -0.084793     -0.133357
