40
# total energy = -224.78897739 eVH      6.12591      1.31874      6.12880        -0.008485      0.023410      0.024745
H      4.92956      3.04536      4.95195        -0.059887     -0.044297      0.020454
H      5.83112      4.24655      3.96166        -0.018592      0.052940      0.044620
H      5.81820      4.37126      5.76724         0.075819     -0.090449      0.016285
H      6.13459      1.32860      3.68258        -0.049527      0.009206      0.094014
H      4.41729      4.17266      1.77610         0.008485     -0.023410      0.024745
H      5.61364      2.44604      0.59925         0.059887      0.044297      0.020454
H      4.71208      1.24485      8.31436         0.018592     -0.052940      0.044620
H      4.72500      1.12014      1.41454        -0.075819      0.090449      0.016285
H      4.40861      4.16280      8.03528         0.049527     -0.009206      0.094014
H      2.61151      4.17266      1.77610        -0.008485     -0.023410      0.024745
H      1.41516      2.44604      0.59925        -0.059887      0.044297      0.020454
H      2.31672      1.24485      8.31436        -0.018592     -0.052940      0.044620
H      2.30380      1.12014      1.41454         0.075819      0.090449      0.016285
H      2.62019      4.16280      8.03528        -0.049527     -0.009206      0.094014
H      0.90289      1.31874      6.12880         0.008485      0.023410      0.024745
H      2.09924      3.04536      4.95195         0.059887     -0.044297      0.020454
H      1.19768      4.24655      3.96166         0.018592      0.052940      0.044620
H      1.21060      4.37126      5.76724        -0.075819     -0.090449      0.016285
H      0.89421      1.32860      3.68258         0.049527      0.009206      0.094014
H     -0.00000      2.58242      7.04006         0.000000      0.028375     -0.083838
H     -0.00000      2.63078      2.83095         0.000000      0.047155     -0.001564
H      3.51440      2.90898      2.68736         0.000000     -0.028375     -0.083838
H      3.51440      2.86062      7.18365         0.000000     -0.047155     -0.001564
C      5.81020      3.69177      4.90770        -0.030108      0.005401     -0.091285
C      4.73300      1.79963      0.55500         0.030108     -0.005401     -0.091285
C      2.29580      1.79963      0.55500        -0.030108     -0.005401     -0.091285
C      1.21860      3.69177      4.90770         0.030108      0.005401     -0.091285
C     -0.00000      4.79573      0.62220         0.000000      0.017648     -0.120296
C     -0.00000      1.94039      6.15015         0.000000      0.061294      0.010802
C     -0.00000      1.95837      3.69709         0.000000     -0.013749     -0.117864
C      3.51440      0.69567      4.97490         0.000000     -0.017648     -0.120296
C      3.51440      3.55101      1.79745         0.000000     -0.061294      0.010802
C      3.51440      3.53303     -0.65561         0.000000      0.013749     -0.117864
N     -0.00000      4.79697      1.82270         0.000000     -0.066723      0.079226
N     -0.00000      2.81680      4.93111         0.000000     -0.018665      0.030171
N      3.51440      0.69443      6.17540         0.000000      0.066723      0.079226
N      3.51440      2.67460      0.57841         0.000000      0.018665      0.030171
O     -0.00000      4.79111      8.09636         0.000000     -0.026870     -0.014302
O      3.51440      0.70029      3.74366         0.000000      0.026870     -0.014302
