56
# total energy = -353.18300657 eVH      5.17208      2.29432      4.06299        -0.063341      0.008892      0.028975
H      6.56046      1.98511      5.10301         0.012219     -0.040756     -0.024207
H      3.07638      1.99839      4.85821         0.012976     -0.028011      0.077553
H      2.78202      1.28609      6.43546        -0.039803     -0.041923      0.037422
H      5.20926      5.57007      1.56319         0.063341      0.008892     -0.028975
H      3.82089      5.26086      0.52317        -0.012219     -0.040756      0.024207
H      0.38407      5.27414      0.77522        -0.012976     -0.028011     -0.077553
H      0.67843      4.56184     10.47206         0.039803     -0.041923     -0.037422
H      1.74881      4.25718      7.20386         0.063341     -0.008892     -0.028975
H      0.36044      4.56639      6.16384        -0.012219      0.040756      0.024207
H      3.84452      4.55311      6.40865        -0.012976      0.028011     -0.077553
H      4.13887      5.26541      4.83139         0.039803      0.041923     -0.037422
H      1.71163      0.98143      9.70366        -0.063341     -0.008892      0.028975
H      3.10001      1.29064     10.74368         0.012219      0.040756     -0.024207
H      6.53682      1.27736     10.49163         0.012976      0.028011      0.077553
H      6.24247      1.98966      0.79479        -0.039803      0.041923      0.037422
C      5.31631      1.10316      7.19888        -0.049287      0.033029     -0.054309
C      4.75327      1.57086      5.93360         0.049345     -0.000311     -0.030831
C      5.06503      4.37891      9.70139         0.049287      0.033029      0.054309
C      5.62807      4.84661     10.96668        -0.049345     -0.000311      0.030831
C      1.60458      5.44834      4.06797         0.049287     -0.033029      0.054309
C      2.16763      4.98064      5.33325        -0.049345      0.000311      0.030831
C      1.85586      2.17259      1.56546        -0.049287     -0.033029     -0.054309
C      1.29282      1.70489      0.30017         0.049345      0.000311     -0.030831
N      6.69364      0.94618      7.42670        -0.030680      0.019105      0.027306
N      4.44975      0.83213      8.28477         0.040027     -0.017006     -0.022089
N      5.55231      1.96619      4.95345         0.050763      0.033015     -0.068352
N      3.43687      1.66396      5.75571         0.032513      0.029377     -0.087278
N      3.68771      4.22193      9.47358         0.030680      0.019105     -0.027306
N      5.93159      4.10788      8.61551        -0.040027     -0.017006      0.022089
N      4.82903      5.24194      0.67273        -0.050763      0.033015      0.068352
N      0.02358      4.93971     11.15181        -0.032513      0.029377      0.087278
N      0.22726      5.60532      3.84015         0.030680     -0.019105     -0.027306
N      2.47115      5.71937      2.98208        -0.040027      0.017006      0.022089
N      1.36858      4.58531      6.31341        -0.050763     -0.033015      0.068352
N      3.48403      4.88754      5.51114        -0.032513     -0.029377      0.087278
N      3.23319      2.32957      1.79328        -0.030680     -0.019105      0.027306
N      0.98930      2.44362      2.65134         0.040027      0.017006     -0.022089
N      2.09187      1.30956     10.59412         0.050763     -0.033015     -0.068352
N     -0.02358      1.61179      0.12229         0.032513     -0.029377     -0.087278
O      0.17625      0.37897      8.48076         0.003241      0.009540      0.032434
O      0.58698      1.32278      6.54534        -0.022300      0.009894     -0.001236
O      3.30492      0.37690      8.03895         0.006178      0.045906      0.002365
O      4.81365      1.07550      9.45945         0.003851     -0.024808      0.018190
O      3.28420      3.65472      8.42676        -0.003241      0.009540     -0.032434
O      2.87347      4.59853     10.36219         0.022300      0.009894      0.001236
O      0.15553      3.65265      8.86858        -0.006178      0.045906     -0.002365
O      5.56770      4.35125      7.44083        -0.003851     -0.024808     -0.018190
O      6.74464      6.17253      2.78609        -0.003241     -0.009540     -0.032434
O      6.33392      5.22872      4.72152         0.022300     -0.009894      0.001236
O      3.61598      6.17460      3.22791        -0.006178     -0.045906     -0.002365
O      2.10725      5.47600      1.80740        -0.003851      0.024808     -0.018190
O      3.63670      2.89678      2.84009         0.003241     -0.009540      0.032434
O      4.04742      1.95297      0.90466        -0.022300     -0.009894     -0.001236
O      6.76537      2.89885      2.39827         0.006178     -0.045906      0.002365
O      1.35320      2.20025      3.82602         0.003851      0.024808      0.018190
