40
# total energy = -223.48286255 eVH      6.12503      1.28497      6.11285         0.088570      0.099456      0.194848
H      4.91921      3.03103      4.92434        -0.144973      0.137366      0.156802
H      5.85689      4.21143      3.91976        -0.250185      0.135295      0.358747
H      5.84196      4.39239      5.74676        -0.244584     -0.024428      0.035425
H      6.10290      1.37649      3.72732        -0.166029     -0.559825     -0.264259
H      4.41817      4.20643      1.76015        -0.088570     -0.099456      0.194848
H      5.62399      2.46037      0.57164         0.144973     -0.137366      0.156802
H      4.68631      1.27997      8.27246         0.250185     -0.135295      0.358747
H      4.70124      1.09901      1.39406         0.244584      0.024428      0.035425
H      4.44030      4.11491      8.08002         0.166029      0.559825     -0.264259
H      2.61063      4.20643      1.76015         0.088570     -0.099456      0.194848
H      1.40481      2.46037      0.57164        -0.144973     -0.137366      0.156802
H      2.34249      1.27997      8.27246        -0.250185     -0.135295      0.358747
H      2.32756      1.09901      1.39406        -0.244584      0.024428      0.035425
H      2.58850      4.11491      8.08002        -0.166029      0.559825     -0.264259
H      0.90377      1.28497      6.11285        -0.088570      0.099456      0.194848
H      2.10959      3.03103      4.92434         0.144973      0.137366      0.156802
H      1.17191      4.21143      3.91976         0.250185      0.135295      0.358747
H      1.18684      4.39239      5.74676         0.244584     -0.024428      0.035425
H      0.92590      1.37649      3.72732         0.166029     -0.559825     -0.264259
H     -0.00000      2.55504      7.07430         0.000000     -0.221836     -0.268873
H     -0.00000      2.71263      2.88010         0.000000     -0.957897      0.175096
H      3.51440      2.93636      2.72160         0.000000      0.221836     -0.268873
H      3.51440      2.77877      7.23280         0.000000      0.957897      0.175096
C      5.77878      3.70545      4.89920         1.252563     -0.618486     -0.446253
C      4.76442      1.78595      0.54650        -1.252563      0.618486     -0.446253
C      2.26438      1.78595      0.54650         1.252563      0.618486     -0.446253
C      1.25002      3.70545      4.89920        -1.252563     -0.618486     -0.446253
C     -0.00000      4.81805      0.67883         0.000000     -0.163274    -12.219805
C     -0.00000      1.90728      6.17765         0.000000      0.643518     -0.624037
C     -0.00000      1.93267      3.69111         0.000000      2.238307      0.384933
C      3.51440      0.67335      5.03153         0.000000      0.163274    -12.219805
C      3.51440      3.58412      1.82495         0.000000     -0.643518     -0.624037
C      3.51440      3.55873     -0.66159         0.000000     -2.238307      0.384933
N     -0.00000      4.82243      1.80072         0.000000     -0.024169      9.001844
N     -0.00000      2.81150      4.94239         0.000000     -0.003930      0.333816
N      3.51440      0.66897      6.15342         0.000000      0.024169      9.001844
N      3.51440      2.67990      0.58969         0.000000      0.003930      0.333816
O     -0.00000      4.79316      8.08490         0.000000      0.015619      3.146404
O      3.51440      0.69824      3.73220         0.000000     -0.015619      3.146404
