6
# total energy = -42.71810763 eVZr      0.00000     -0.00000      3.96411        -0.000000     -0.000000      0.134181
Zr      1.64000      1.64000      9.76411        -0.000000      0.000000      0.134181
Zr      0.00000      0.00000      7.63589         0.000000      0.000000     -0.134181
Zr      1.64000      1.64000      1.83589        -0.000000     -0.000000     -0.134181
Au      0.00000     -0.00000      0.00000         0.000000     -0.000000     -0.000000
Au      1.64000      1.64000      5.80000         0.000000     -0.000000     -0.000000
