36
# total energy = -220.88078972 eVH      0.74279      2.40188      2.49054         0.042533     -0.011221     -0.055444
H      0.44609      3.58976      1.33047         0.008866     -0.082099      0.120357
H      4.60806      7.65488      1.11569         0.042533     -0.011221     -0.055444
H      4.31136      8.84276     -0.04437         0.008866     -0.082099      0.120357
H      6.98775      2.40188     -1.09422        -0.042533     -0.011221      0.055444
H      7.28445      3.58976      0.06585        -0.008866     -0.082099     -0.120357
H      3.12248      7.65488      0.28062        -0.042533     -0.011221      0.055444
H      3.41918      8.84276      1.44069        -0.008866     -0.082099     -0.120357
H      6.98775      8.10412     -1.09422        -0.042533      0.011221      0.055444
H      7.28445      6.91624      0.06585        -0.008866      0.082099     -0.120357
H      3.12248      2.85112      0.28062        -0.042533      0.011221      0.055444
H      3.41918      1.66324      1.44069        -0.008866      0.082099     -0.120357
H      0.74279      8.10412      2.49054         0.042533      0.011221     -0.055444
H      0.44609      6.91624      1.33047         0.008866      0.082099      0.120357
H      4.60806      2.85112      1.11569         0.042533      0.011221     -0.055444
H      4.31136      1.66324     -0.04437         0.008866      0.082099      0.120357
C      2.16054      5.25300     -0.19581         0.062863     -0.000000     -0.025245
C      3.36079      5.25300     -1.03819        -0.474767     -0.000000      0.320247
C      6.02582      0.00000     -1.57065         0.062863     -0.000000     -0.025245
C      7.22606      0.00000     -2.41303        -0.474767     -0.000000      0.320247
C      5.57000      5.25300      1.59212        -0.062863     -0.000000      0.025245
C      4.36975      5.25300      2.43451         0.474767     -0.000000     -0.320247
C      1.70473      0.00000      2.96697        -0.062863     -0.000000      0.025245
C      0.50448      0.00000      3.80935         0.474767     -0.000000     -0.320247
N     -0.00000      2.99961      2.07300         0.000000      0.159319      0.000000
N      3.86527      8.25261      0.69816        -0.000000      0.159319      0.000000
N     -0.00000      7.50639      2.07300        -0.000000     -0.159319      0.000000
N      3.86527      2.25339      0.69816        -0.000000     -0.159319      0.000000
O      1.70136      6.39052      0.13086         0.029595      0.019560      0.015999
O      5.56664      1.13752     -1.24398         0.029595      0.019560      0.015999
O      6.02918      6.39052      1.26546        -0.029595      0.019560     -0.015999
O      2.16391      1.13752      2.64030        -0.029595      0.019560     -0.015999
O      6.02918      4.11548      1.26546        -0.029595     -0.019560     -0.015999
O      2.16391      9.36848      2.64030        -0.029595     -0.019560     -0.015999
O      1.70136      4.11548      0.13086         0.029595     -0.019560      0.015999
O      5.56664      9.36848     -1.24398         0.029595     -0.019560      0.015999
