16
# total energy = -97.34194679 eVH      1.44558      4.27658      1.39015         0.057098      0.057098     -0.049440
H      0.79737      3.62837     -0.11845         0.016091      0.016091      0.027055
H      4.21642      1.38542      1.39015        -0.057098     -0.057098     -0.049440
H      4.86463      2.03363     -0.11845        -0.016091     -0.016091      0.027055
H      4.27658      4.21642      3.32585         0.057098     -0.057098      0.049440
H      3.62837      4.86463      0.11845         0.016091     -0.016091     -0.027055
H      1.38542      1.44558      3.32585        -0.057098      0.057098      0.049440
H      2.03363      0.79737      0.11845        -0.016091      0.016091     -0.027055
C     -0.00000      2.83100      1.60957        -0.000000      0.000000     -0.035868
C      2.83100      0.00000      3.10643        -0.000000     -0.000000      0.035868
N      0.81307      3.64407      0.90154         0.026147      0.026147     -0.043206
N      4.84893      2.01793      0.90154        -0.026147     -0.026147     -0.043206
N      3.64407      4.84893      3.81446         0.026147     -0.026147      0.043206
N      2.01793      0.81307      3.81446        -0.026147      0.026147      0.043206
O     -0.00000      2.83100      2.88367        -0.000000      0.000000      0.016897
O      2.83100      0.00000      1.83233        -0.000000      0.000000     -0.016897
