16
# total energy = -70.50520729 eVC      3.01469      1.11116      0.96218         1.819422     -0.635509     -2.981274
C      2.32129      5.64116      2.08693        -1.819422     -0.635509      2.981274
C      0.54263      7.94884      5.73722        -1.819422      0.635509      2.981274
C      1.23603      3.41884      4.61248         1.819422      0.635509     -2.981274
N      0.02588      0.70378      0.04474         0.293176     -2.560490     -0.947603
N      3.38499      2.37424      0.35017         0.712913     -3.912436     -1.922595
N      1.75278      5.23378      3.30496        -0.293176     -2.560490      0.947603
N      1.95099      6.90424      2.69894        -0.712913     -3.912436      1.922595
N      3.53144      8.35622     -0.34534        -0.293176      2.560490      0.947603
N      0.17233      6.68576      6.34924        -0.712913      3.912436      1.922595
N      1.80455      3.82622      3.39445         0.293176      2.560490     -0.947603
N      1.60633      2.15576      4.00047         0.712913      3.912436     -1.922595
O      2.53535      1.05604      1.79952        -3.157236      0.796611      5.670352
O      2.80063      5.58604      1.24959         3.157236      0.796611     -5.670352
O      1.02197      8.00396      4.89988         3.157236     -0.796611     -5.670352
O      0.75669      3.47396      5.44982        -3.157236     -0.796611      5.670352
