16
# total energy = -94.40647257 eVH      1.38944      4.22044      1.33681         4.362673      4.362673      3.679708
H      0.80308      3.63408      0.00504         0.012885      0.012885     -2.271694
H      4.27256      1.44156      1.33681        -4.362673     -4.362673      3.679708
H      4.85892      2.02792      0.00504        -0.012885     -0.012885     -2.271694
H      4.22044      4.27256      3.37919         4.362673     -4.362673     -3.679708
H      3.63408      4.85892     -0.00504         0.012885     -0.012885      2.271694
H      1.44156      1.38944      3.37919        -4.362673      4.362673     -3.679708
H      2.02792      0.80308     -0.00504        -0.012885      0.012885      2.271694
C      0.00000      2.83100      1.56276        -0.000000     -0.000000      5.258947
C      2.83100      0.00000      3.15324        -0.000000     -0.000000     -5.258947
N      0.80066      3.63166      0.98261        -1.999236     -1.999236     -5.393833
N      4.86134      2.03034      0.98261         1.999236      1.999236     -5.393833
N      3.63166      4.86134      3.73339        -1.999236      1.999236      5.393833
N      2.03034      0.80066      3.73339         1.999236     -1.999236      5.393833
O      0.00000      2.83100      2.82131        -0.000000     -0.000000      2.818365
O      2.83100      0.00000      1.89469        -0.000000     -0.000000     -2.818365
