40
# total energy = -217.02223580 eVH      6.22292      1.24541      6.06472        -1.064123      0.373864      0.396665
H      4.97173      3.08449      4.80306        -0.911246     -0.923613      1.180011
H      5.77524      4.10729      3.97194         0.838366      1.503001     -1.520749
H      5.89938      4.39898      5.73621        -0.421887     -0.177763      0.065344
H      6.11385      1.46743      3.69156        -1.312484     -1.523732      0.525150
H      4.32028      4.24599      1.71202         1.064123     -0.373864      0.396665
H      5.57147      2.40691      0.45036         0.911246      0.923613      1.180011
H      4.76796      1.38411      8.32464        -0.838366     -1.503001     -1.520749
H      4.64382      1.09242      1.38351         0.421887      0.177763      0.065344
H      4.42935      4.02397      8.04426         1.312484      1.523732      0.525150
H      2.70852      4.24599      1.71202        -1.064123     -0.373864      0.396665
H      1.45733      2.40691      0.45036        -0.911246      0.923613      1.180011
H      2.26084      1.38411      8.32464         0.838366     -1.503001     -1.520749
H      2.38498      1.09242      1.38351        -0.421887      0.177763      0.065344
H      2.59945      4.02397      8.04426        -1.312484      1.523732      0.525150
H      0.80588      1.24541      6.06472         1.064123      0.373864      0.396665
H      2.05707      3.08449      4.80306         0.911246     -0.923613      1.180011
H      1.25356      4.10729      3.97194        -0.838366      1.503001     -1.520749
H      1.12942      4.39898      5.73621         0.421887     -0.177763      0.065344
H      0.91495      1.46743      3.69156         1.312484     -1.523732      0.525150
H     -0.00000      2.59249      7.06156         0.000000     -0.256591      0.172686
H     -0.00000      2.67001      2.90468         0.000000     -1.501302      2.137847
H      3.51440      2.89891      2.70886         0.000000      0.256591      0.172686
H      3.51440      2.82139      7.25738         0.000000      1.501302      2.137847
C      5.85706      3.67064      4.92213        -0.905413      0.533320      0.561117
C      4.68614      1.82076      0.56943         0.905413     -0.533320      0.561117
C      2.34266      1.82076      0.56943        -0.905413     -0.533320      0.561117
C      1.17174      3.67064      4.92213         0.905413      0.533320      0.561117
C     -0.00000      4.81197      0.74553         0.000000     -0.280200    -26.706572
C     -0.00000      1.96131      6.16679         0.000000     -0.515445      0.850663
C     -0.00000      1.91970      3.92968         0.000000      2.708735     -7.338543
C      3.51440      0.67943      5.09823         0.000000      0.280200    -26.706572
C      3.51440      3.53009      1.81409         0.000000      0.515445      0.850663
C      3.51440      3.57170     -0.42302         0.000000     -2.708735     -7.338543
N     -0.00000      4.83094      1.80090         0.000000      0.302890     20.662485
N     -0.00000      2.82473      4.97297         0.000000      0.020308      1.939660
N      3.51440      0.66046      6.15360         0.000000     -0.302890     20.662485
N      3.51440      2.66667      0.62027         0.000000     -0.020308      1.939660
O     -0.00000      4.80411      8.02912         0.000000     -0.134313      5.866697
O      3.51440      0.68729      3.67642         0.000000      0.134313      5.866697
