30
# total energy = -127.61000164 eVH      0.75934      2.49888      4.79925        -0.262753     -0.805404     -0.826912
H      0.73610      2.43536      2.00797        -0.745543      1.628722     -0.666646
H      0.23621     -0.10711      0.56094        -1.822843     -1.603916     -0.929548
H      2.73366      9.16028     -0.48353         0.262753     -0.805404      0.826912
H      2.75690      9.09676      2.30775         0.745543      1.628722      0.666646
H     -0.23621      6.55429     -0.56094         1.822843     -1.603916      0.929548
H      2.73366     10.82392     -0.48353         0.262753      0.805404      0.826912
H      2.75690     10.88744      2.30775         0.745543     -1.628722      0.666646
H     -0.23621      0.10711     -0.56094         1.822843      1.603916      0.929548
H      0.75934      4.16252      4.79925        -0.262753      0.805404     -0.826912
H      0.73610      4.22604      2.00797        -0.745543     -1.628722     -0.666646
H      0.23621      6.76851      0.56094        -1.822843      1.603916     -0.929548
H      2.81960      3.33070      0.54972        -0.697546     -0.000000     -0.193819
H      0.67341      9.99210      3.76601         0.697546     -0.000000      0.193819
C      2.07044      0.47484      2.65308        -3.536122    -13.549978     -7.245401
C      1.42256      7.13624      1.66265         3.536122    -13.549978      7.245401
C      1.42256     12.84796      1.66265         3.536122     13.549978      7.245401
C      2.07044      6.18656      2.65308        -3.536122     13.549978     -7.245401
N      1.14755      3.33070      0.10742        -0.777816     -0.000000      3.261865
N      0.35888      3.33070      1.50371         3.474223     -0.000000      0.169697
N      2.34545      9.99210      4.20830         0.777816     -0.000000     -3.261865
N      3.13412      9.99210      2.81201        -3.474223     -0.000000     -0.169697
O      2.09194      1.60329      2.98851         0.613090      7.729153      2.571843
O      3.00905     12.59261      3.33701        -0.570678     -0.607024     -0.451330
O      1.40106      8.26469      1.32722        -0.613090      7.729153     -2.571843
O      0.48395      5.93121      0.97871         0.570678     -0.607024      0.451330
O      1.40106     11.71951      1.32722        -0.613090     -7.729153     -2.571843
O      0.48395      0.73019      0.97871         0.570678      0.607024      0.451330
O      2.09194      5.05811      2.98851         0.613090     -7.729153      2.571843
O      3.00905      7.39159      3.33701        -0.570678      0.607024     -0.451330
