16
# total energy = -84.70375580 eVC      2.81930      0.52759      1.33989        -0.910375      0.713463      1.196903
C      2.51668      5.05759      1.70922         0.910375      0.713463     -1.196903
C      0.73802      8.53241      5.35952         0.910375     -0.713463     -1.196903
C      1.04064      4.00241      4.99018        -0.910375     -0.713463      1.196903
N     -0.30161      0.67092      0.15904         3.322530     -1.418439     -0.052348
N      0.06883      1.94344      0.26745        -1.030604     -0.560189     -0.622139
N      2.08027      5.20092      3.19066        -3.322530     -1.418439      0.052348
N      1.70983      6.47344      3.08226         1.030604     -0.560189      0.622139
N      0.30161      8.38908     -0.15904        -3.322530      1.418439      0.052348
N     -0.06883      7.11656      6.73255         1.030604      0.560189      0.622139
N      1.47706      3.85908      3.50875         3.322530      1.418439     -0.052348
N      1.84749      2.58656      3.61715        -1.030604      0.560189     -0.622139
O      2.48224      1.53997      1.91372         0.654234      0.482572     -0.865408
O      2.85374      6.06997      1.13539        -0.654234      0.482572      0.865408
O      1.07508      7.52003      4.78569        -0.654234     -0.482572      0.865408
O      0.70358      2.99003      5.56402         0.654234     -0.482572     -0.865408
