18
# total energy = -101.78740579 eVH      0.63546      4.22735      9.02782         0.036370     -0.022909      0.039339
H      0.56983      1.22832      0.20021         0.003353      0.016558     -0.024441
H      3.24665      0.49482      8.15543         0.022845      0.014237      0.008428
H      3.17614      0.16229      0.72297        -0.028712     -0.006640      0.017558
H      1.87543      2.56167      6.98405        -0.005473     -0.023176     -0.010873
H      0.63546      0.45165      4.47182         0.036370      0.022909      0.039339
H      0.56983      3.45068      4.75621         0.003353     -0.016558     -0.024441
H      3.24665      4.18418      3.59943         0.022845     -0.014237      0.008428
H      3.17614      4.51671      5.27897        -0.028712      0.006640      0.017558
H      1.87543      2.11733      2.42805        -0.005473      0.023176     -0.010873
C      1.90171      1.72913      6.24305         0.039236     -0.062890      0.065308
C      1.90171      2.94987      1.68705         0.039236      0.062890      0.065308
N      0.00060      0.36954     -0.00291        -0.023282      0.082370     -0.079517
N      0.00060      4.30946      4.55309        -0.023282     -0.082370     -0.079517
O      1.50726      1.97649      5.06330        -0.080040      0.060810     -0.016543
O      2.32944      0.60143      6.65423         0.035702      0.111866      0.000742
O      1.50726      2.70251      0.50730        -0.080040     -0.060810     -0.016543
O      2.32944      4.07757      2.09823         0.035702     -0.111866      0.000742
