18
# total energy = -101.78859028 eVH      0.63586      4.22768      9.02955         0.031565     -0.021866      0.026487
H      0.57003      1.22894      0.19898         0.001565      0.020335     -0.012858
H      3.24658      0.49598      8.15503         0.030836      0.002644      0.010827
H      3.17593      0.16206      0.72237        -0.024067      0.004006      0.014631
H      1.87529      2.56163      6.98443        -0.006063     -0.011114     -0.002840
H      0.63586      0.45132      4.47355         0.031565      0.021866      0.026487
H      0.57003      3.45006      4.75498         0.001565     -0.020335     -0.012858
H      3.24658      4.18302      3.59903         0.030836     -0.002644      0.010827
H      3.17593      4.51694      5.27837        -0.024067     -0.004006      0.014631
H      1.87529      2.11737      2.42843        -0.006063      0.011114     -0.002840
C      1.90180      1.72954      6.24360         0.017712     -0.025246      0.027429
C      1.90180      2.94946      1.68760         0.017712      0.025246      0.027429
N      0.00068      0.37007     -0.00330        -0.029248      0.074635     -0.076440
N      0.00068      4.30893      4.55270        -0.029248     -0.074635     -0.076440
O      1.50558      1.97685      5.06406        -0.076197      0.059581     -0.009464
O      2.33078      0.60310      6.65343         0.053898      0.062566      0.022227
O      1.50558      2.70215      0.50806        -0.076197     -0.059581     -0.009464
O      2.33078      4.07590      2.09743         0.053898     -0.062566      0.022227
