4
# total energy = -20.76910587 eVPd      0.00000      0.00000      0.00000         0.000000     -0.000000      0.000000
Pd      0.00000      1.95550      1.95550         0.000000     -0.000000     -0.000000
Pd      1.95550      0.00000      1.95550        -0.000000     -0.000000     -0.000000
Pd      1.95550      1.95550      0.00000         0.000000      0.000000      0.000000
