56
# total energy = -353.02642046 eVH      5.14746      2.27565      4.07770         0.080683      0.150320     -0.224624
H      6.55437      1.99274      5.15648         0.289135      0.036812     -0.360617
H      3.08076      1.99084      4.86300         0.211065      0.002407      0.105568
H      2.78349      1.29884      6.42844         0.095303     -0.044088      0.038038
H      5.23389      5.55140      1.54848        -0.080683      0.150320      0.224624
H      3.82697      5.26849      0.46970        -0.289135      0.036812      0.360617
H      0.37969      5.26659      0.77043        -0.211065      0.002407     -0.105568
H      0.67696      4.57459     10.47909        -0.095303     -0.044088     -0.038038
H      1.77344      4.27585      7.18915        -0.080683     -0.150320      0.224624
H      0.36652      4.55876      6.11037        -0.289135     -0.036812      0.360617
H      3.84014      4.56066      6.40385        -0.211065     -0.002407     -0.105568
H      4.13741      5.25266      4.83841        -0.095303      0.044088     -0.038038
H      1.68701      1.00010      9.71837         0.080683     -0.150320     -0.224624
H      3.09393      1.28301     10.79715         0.289135     -0.036812     -0.360617
H      6.54121      1.28491     10.49642         0.211065     -0.002407      0.105568
H      6.24394      1.97691      0.78777         0.095303      0.044088      0.038038
C      5.31903      1.09925      7.19800        -0.099567      0.053508     -0.143330
C      4.77062      1.56329      5.94740        -0.270002      0.360362     -0.849816
C      5.06231      4.37500      9.70228         0.099567      0.053508      0.143330
C      5.61073      4.83904     10.95288         0.270002      0.360362      0.849816
C      1.60187      5.45225      4.06885         0.099567     -0.053508      0.143330
C      2.15028      4.98821      5.31945         0.270002     -0.360362      0.849816
C      1.85858      2.17650      1.56457        -0.099567     -0.053508     -0.143330
C      1.31017      1.71246      0.31397        -0.270002     -0.360362     -0.849816
N      6.68391      0.94277      7.41936         0.151761     -0.009055      0.119625
N      4.44848      0.83429      8.27174         0.137600     -0.051396      0.261982
N      5.56043      1.96345      4.95203        -0.241031     -0.277843      0.673423
N      3.45712      1.67318      5.76237        -0.472190     -0.077196     -0.028500
N      3.69743      4.21852      9.48092        -0.151761     -0.009055     -0.119625
N      5.93286      4.11004      8.62853        -0.137600     -0.051396     -0.261982
N      4.82092      5.23920      0.67415         0.241031     -0.277843     -0.673423
N      0.00333      4.94893     11.14516         0.472190     -0.077196      0.028500
N      0.23698      5.60873      3.84750        -0.151761      0.009055     -0.119625
N      2.47241      5.71721      2.99511        -0.137600      0.051396     -0.261982
N      1.36047      4.58805      6.31483         0.241031      0.277843     -0.673423
N      3.46378      4.87832      5.50449         0.472190      0.077196      0.028500
N      3.22346      2.33298      1.78593         0.151761      0.009055      0.119625
N      0.98804      2.44146      2.63832         0.137600      0.051396      0.261982
N      2.09998      1.31230     10.59270        -0.241031      0.277843      0.673423
N     -0.00333      1.60257      0.12894        -0.472190      0.077196     -0.028500
O      0.15947      0.37557      8.47254         0.251186     -0.053920      0.115832
O      0.57394      1.32185      6.53465         0.124725     -0.001606      0.048978
O      3.31041      0.37101      8.02773        -0.106752     -0.002829      0.061710
O      4.82298      1.08786      9.44028        -0.137338     -0.042430      0.131685
O      3.30097      3.65132      8.43498        -0.251186     -0.053920     -0.115832
O      2.88651      4.59760     10.37287        -0.124725     -0.001606     -0.048978
O      0.15004      3.64676      8.87979         0.106752     -0.002829     -0.061710
O      5.55837      4.36361      7.45999         0.137338     -0.042430     -0.131685
O      6.76142      6.17593      2.79431        -0.251186      0.053920     -0.115832
O      6.34696      5.22965      4.73220        -0.124725      0.001606     -0.048978
O      3.61049      6.18049      3.23912         0.106752      0.002829     -0.061710
O      2.09792      5.46364      1.82657         0.137338      0.042430     -0.131685
O      3.61992      2.90018      2.83187         0.251186      0.053920      0.115832
O      4.03439      1.95390      0.89398         0.124725      0.001606      0.048978
O      6.77085      2.90474      2.38706        -0.106752      0.002829      0.061710
O      1.36253      2.18789      3.80686        -0.137338      0.042430      0.131685
