18
# total energy = -101.79373441 eVH      0.63847      4.23265      9.04342        -0.003352     -0.005650     -0.054835
H      0.57011      1.23855      0.19017        -0.024509      0.004925      0.052448
H      3.25098      0.50304      8.14832         0.053113     -0.050244     -0.005895
H      3.17352      0.16635      0.71555        -0.001861      0.052140      0.007624
H      1.87256      2.56520      6.99069        -0.010309      0.003273     -0.021051
H      0.63847      0.44635      4.48742        -0.003352      0.005650     -0.054835
H      0.57011      3.44045      4.74617        -0.024509     -0.004925      0.052448
H      3.25098      4.17596      3.59232         0.053113      0.050244     -0.005895
H      3.17352      4.51265      5.27155        -0.001861     -0.052140      0.007624
H      1.87256      2.11380      2.43469        -0.010309     -0.003273     -0.021051
C      1.90076      1.73696      6.24545        -0.009597      0.062142      0.038301
C      1.90076      2.94204      1.68945        -0.009597     -0.062142      0.038301
N      0.00153      0.37666     -0.00770        -0.016234      0.034758     -0.020782
N      0.00153      4.30234      4.54830        -0.016234     -0.034758     -0.020782
O      1.48074      1.98467      5.07246         0.011158     -0.067425      0.069670
O      2.35386      0.61861      6.64979         0.001590      0.046343     -0.065480
O      1.48074      2.69433      0.51646         0.011158      0.067425      0.069670
O      2.35386      4.06039      2.09379         0.001590     -0.046343     -0.065480
