16
# total energy = -64.69624526 eVC      3.12333      1.37712      0.75808        -0.425279     -1.185595      0.810654
C      2.21265      5.90712      2.29103         0.425279     -1.185595     -0.810654
C      0.43399      7.68288      5.94133         0.425279      1.185595     -0.810654
C      1.34467      3.15288      4.40838        -0.425279      1.185595      0.810654
N      0.19210      0.58709      6.96837         0.409267      4.437942      0.256864
N      3.26562      2.65186      0.55706         0.464772     -1.060228     -0.795878
N      1.58657      5.11709      3.38134        -0.409267      4.437942     -0.256864
N      2.07036      7.18186      2.49205        -0.464772     -1.060228      0.795878
N      3.36523      8.47291     -0.26896        -0.409267     -4.437942     -0.256864
N      0.29170      6.40814      6.14235        -0.464772      1.060228      0.795878
N      1.97076      3.94291      3.31807         0.409267     -4.437942      0.256864
N      1.48696      1.87814      4.20735         0.464772      1.060228     -0.795878
O      2.55416      0.84439      1.75397        -0.056230      0.976256      0.184989
O      2.78183      5.37439      1.29514         0.056230      0.976256     -0.184989
O      1.00317      8.21561      4.94543         0.056230     -0.976256     -0.184989
O      0.77550      3.68561      5.40427        -0.056230     -0.976256      0.184989
