44
# total energy = -299.32927669 eVH      8.36605      8.44661      1.94172         0.053107      0.030043     -0.129095
H      8.43211      9.00736      0.22564        -0.034710     -0.046885      0.087308
H      2.48174      5.59584      3.98779         0.091904      0.171475     -0.128696
H      1.19693      4.43821      3.57797         0.146855      0.052952      0.258544
H      0.69720      1.48256      0.54843        -0.053107     -0.030043      0.129095
H      0.63115      0.92181      2.26451         0.034710      0.046885     -0.087308
H      6.58151      4.33333     -1.49764        -0.091904     -0.171475      0.128696
H      7.86633      5.49097     -1.08782        -0.146855     -0.052952     -0.258544
C      6.74361      1.56391      2.39233         0.647962     -0.281559     -0.310738
C      2.01871      4.25075      5.43258        -0.258759      0.014854     -0.451980
C      2.31964      8.36526      0.09782        -0.647962      0.281559      0.310738
C      7.04455      5.67842     -2.94243         0.258759     -0.014854      0.451980
N      5.98092      2.21439      1.49013         0.176647     -0.169548      0.261316
N      7.92844      8.85572      1.10306         0.104183     -0.003388      0.121590
N      6.47966      2.39199      0.25481        -0.162171      0.161690     -0.182763
N      6.22740      1.43354      3.66959        -0.074249      0.073264     -0.073364
N      5.09528      1.92127      3.80552         0.195280     -0.121890      0.107518
N      4.07229      2.31510      4.08904        -0.793763      0.280124      0.264094
N      1.31936      3.24460      6.00599         0.412860      0.541758     -0.403002
N      1.86939      4.81820      4.25224        -0.125917     -0.078679     -0.254082
N      0.32061      2.69663      5.28353        -0.074259     -0.227862      0.232344
N      3.04181      4.81753     -0.94786        -0.116375     -0.158645      0.007082
N      3.08256      4.39277      0.21902         0.088028      0.172572     -0.323376
N      3.21831      4.09881      1.30232         0.161995     -0.204124      0.942546
N      3.08234      7.71479      1.00002        -0.176647      0.169548     -0.261316
N      1.13482      1.07345      1.38709        -0.104183      0.003388     -0.121590
N      2.58359      7.53718      2.23534         0.162171     -0.161690      0.182763
N      2.83585      0.63573     -0.03140         0.074249     -0.073264      0.073364
N      3.96798      8.00790     -1.31537        -0.195280      0.121890     -0.107518
N      4.99097      7.61407     -1.59889         0.793763     -0.280124     -0.264094
N      7.74390      6.68458     -3.51584        -0.412860     -0.541758      0.403002
N      7.19387      5.11098     -1.76209         0.125917      0.078679      0.254082
N      8.74264      7.23254     -2.79338         0.074259      0.227862     -0.232344
N      6.02145      5.11164      3.43802         0.116375      0.158645     -0.007082
N      5.98070      5.53640      2.27113        -0.088028     -0.172572      0.323376
N      5.84494      5.83036      1.18783        -0.161995      0.204124     -0.942546
O      5.68309      2.98278     -0.52850         0.123780      0.045366     -0.173872
O      7.62158      2.02448     -0.11676        -0.134900      0.054145      0.010747
O      8.72384      3.91249      2.43003        -0.213665     -0.172195     -0.071389
O      0.05893      2.99379      4.08780         0.015626     -0.100038      0.155549
O      3.38017      6.94639      3.01865        -0.123780     -0.045366      0.173872
O      1.44168      7.90469      2.60691         0.134900     -0.054145     -0.010747
O      0.33942      6.01668      0.06012         0.213665      0.172195      0.071389
O      9.00433      6.93539     -1.59765        -0.015626      0.100038     -0.155549
