40
# total energy = -224.78385229 eVH      6.12656      1.31746      6.12842        -0.037246     -0.003292      0.029384
H      4.92999      3.04586      4.95149        -0.068845     -0.045281      0.010114
H      5.83374      4.24342      3.95996        -0.015833      0.092990     -0.034267
H      5.81752      4.37286      5.76375         0.076562     -0.099130     -0.001484
H      6.13380      1.33077      3.68494         0.016581      0.058254      0.078889
H      4.41664      4.17394      1.77572         0.037246      0.003292      0.029384
H      5.61321      2.44554      0.59879         0.068845      0.045281      0.010114
H      4.70946      1.24798      8.31266         0.015833     -0.092990     -0.034267
H      4.72568      1.11854      1.41105        -0.076562      0.099130     -0.001484
H      4.40940      4.16063      8.03764        -0.016581     -0.058254      0.078889
H      2.61216      4.17394      1.77572        -0.037246      0.003292      0.029384
H      1.41559      2.44554      0.59879        -0.068845      0.045281      0.010114
H      2.31934      1.24798      8.31266        -0.015833     -0.092990     -0.034267
H      2.30312      1.11854      1.41105         0.076562      0.099130     -0.001484
H      2.61940      4.16063      8.03764         0.016581     -0.058254      0.078889
H      0.90224      1.31746      6.12842         0.037246     -0.003292      0.029384
H      2.09881      3.04586      4.95149         0.068845     -0.045281      0.010114
H      1.19506      4.24342      3.95996         0.015833      0.092990     -0.034267
H      1.21128      4.37286      5.76375        -0.076562     -0.099130     -0.001484
H      0.89500      1.33077      3.68494        -0.016581      0.058254      0.078889
H     -0.00000      2.57598      7.04064         0.000000      0.100068     -0.001776
H     -0.00000      2.63544      2.83482         0.000000      0.078016     -0.033870
H      3.51440      2.91542      2.68794         0.000000     -0.100068     -0.001776
H      3.51440      2.85596      7.18752         0.000000     -0.078016     -0.033870
C      5.81055      3.69189      4.90451        -0.022799     -0.042384      0.062602
C      4.73265      1.79951      0.55181         0.022799      0.042384      0.062602
C      2.29615      1.79951      0.55181        -0.022799      0.042384      0.062602
C      1.21825      3.69189      4.90451         0.022799     -0.042384      0.062602
C     -0.00000      4.79720      0.62211         0.000000      0.018834      0.080915
C     -0.00000      1.93793      6.15217         0.000000      0.048360     -0.101692
C     -0.00000      1.96416      3.69992         0.000000     -0.273071     -0.140572
C      3.51440      0.69420      4.97481         0.000000     -0.018834      0.080915
C      3.51440      3.55347      1.79947         0.000000     -0.048360     -0.101692
C      3.51440      3.52724     -0.65278         0.000000      0.273071     -0.140572
N     -0.00000      4.79998      1.82378         0.000000     -0.070647     -0.014631
N     -0.00000      2.81425      4.93295         0.000000      0.142063      0.042891
N      3.51440      0.69142      6.17648         0.000000      0.070647     -0.014631
N      3.51440      2.67715      0.58025         0.000000     -0.142063      0.042891
O     -0.00000      4.79154      8.09796         0.000000     -0.027586     -0.121740
O      3.51440      0.69986      3.74526         0.000000      0.027586     -0.121740
