30
# total energy = -131.51746457 eVH      0.74841      2.50641      4.81469         0.219994     -0.240231     -0.543148
H      0.71719      2.46608      1.96988        -0.106520      0.633562      0.099254
H      0.19842     -0.09911      0.45269         0.227068      0.769576      2.159141
H      2.74459      9.16781     -0.49897        -0.219994     -0.240231      0.543148
H      2.77581      9.12748      2.34584         0.106520      0.633562     -0.099254
H     -0.19842      6.56229     -0.45269        -0.227068      0.769576     -2.159141
H      2.74459     10.81639     -0.49897        -0.219994      0.240231      0.543148
H      2.77581     10.85672      2.34584         0.106520     -0.633562     -0.099254
H     -0.19842      0.09911     -0.45269        -0.227068     -0.769576     -2.159141
H      0.74841      4.15499      4.81469         0.219994      0.240231     -0.543148
H      0.71719      4.19532      1.96988        -0.106520     -0.633562      0.099254
H      0.19842      6.76051      0.45269         0.227068     -0.769576      2.159141
H      2.84309      3.33070      0.56237        -0.526920      0.000000     -0.334511
H      0.64991      9.99210      3.75335         0.526920      0.000000      0.334511
C      2.05358      0.40223      2.61526        -0.595790     -6.913090     -2.426375
C      1.43942      7.06363      1.70047         0.595790     -6.913090      2.426375
C      1.43942     12.92057      1.70047         0.595790      6.913090      2.426375
C      2.05358      6.25917      2.61526        -0.595790      6.913090     -2.426375
N      1.14724      3.33070      0.17002        -1.273363      0.000000      1.147824
N      0.39268      3.33070      1.46920         1.578926      0.000000      0.251021
N      2.34576      9.99210      4.14570         1.273363      0.000000     -1.147824
N      3.10032      9.99210      2.84652        -1.578926      0.000000     -0.251021
O      2.08164      1.59252      2.97451         0.581998      3.759031      1.609356
O      2.94570     12.61468      3.27949         0.948727      2.474606      1.699926
O      1.41136      8.25392      1.34122        -0.581998      3.759031     -1.609356
O      0.54730      5.95328      1.03623        -0.948727      2.474606     -1.699926
O      1.41136     11.73028      1.34122        -0.581998     -3.759031     -1.609356
O      0.54730      0.70812      1.03623        -0.948727     -2.474606     -1.699926
O      2.08164      5.06888      2.97451         0.581998     -3.759031      1.609356
O      2.94570      7.36952      3.27949         0.948727     -2.474606      1.699926
