16
# total energy = -103.09155936 eVC      2.42172      1.23208      2.04935         0.215369      1.365660      0.338189
C      2.91427      5.76208      0.99976        -0.215369      1.365660     -0.338189
C      1.13561      7.82792      4.65006        -0.215369     -1.365660     -0.338189
C      0.64305      3.29792      5.69964         0.215369     -1.365660      0.338189
N      0.10237      0.62174      0.28180        -2.640669     -3.449538     -2.523067
N     -0.49669      1.68653      0.72174         0.715064     -0.461212      3.465198
N      1.67629      5.15174      3.06790         2.640669     -3.449538      2.523067
N      2.27536      6.21653      2.62796        -0.715064     -0.461212     -3.465198
N     -0.10237      8.43826     -0.28180         2.640669      3.449538      2.523067
N      0.49669      7.37347      6.27826        -0.715064      0.461212     -3.465198
N      1.88103      3.90826      3.63151        -2.640669      3.449538     -2.523067
N      1.28197      2.84347      4.07145         0.715064      0.461212      3.465198
O      2.79945      2.14224      1.62440        -0.337302     -0.754104     -2.026136
O      2.53653      6.67224      1.42471         0.337302     -0.754104      2.026136
O      0.75787      6.91776      5.07501         0.337302      0.754104      2.026136
O      1.02079      2.38776      5.27469        -0.337302      0.754104     -2.026136
