12
# total energy = -76.11008418 eVC      2.35571      1.30750      0.90194         0.752968      0.000000      0.055022
C      3.05429      3.92250      2.68694        -0.752968      0.000000      0.055022
C      8.46429      3.92250      2.66806        -0.752968      0.000000     -0.055022
C      7.76571      1.30750      0.88306         0.752968      0.000000     -0.055022
N     -1.15701      1.30750     -0.22172        -1.054113     -0.000000      1.275798
N      6.56701      3.92250      1.56328         1.054113     -0.000000      1.275798
N      1.15701      3.92250      0.22172         1.054113      0.000000     -1.275798
N      4.25299      1.30750      2.00672        -1.054113      0.000000     -1.275798
O      3.32153      1.30750      1.25942         0.258878      0.000000      1.222687
O      2.08847      3.92250      3.04442        -0.258878      0.000000      1.222687
O      7.49847      3.92250      2.31058        -0.258878     -0.000000     -1.222687
O      8.73153      1.30750      0.52558         0.258878     -0.000000     -1.222687
