4
# total energy = -18.17663009 eVZr      0.00000      0.00000      0.00000         0.000000      0.000000      0.000000
Au      2.41750      2.41750      0.00000         0.000000      0.000000      0.000000
Au      2.41750      0.00000      1.70800         0.000000      0.000000      0.000000
Au      0.00000      2.41750      1.70800         0.000000      0.000000      0.000000
