12
# total energy = -76.48926878 eVC      2.36890      1.30750      0.87579        -0.005157      0.000000      0.027026
C      3.04110      3.92250      2.66079         0.005157      0.000000      0.027026
C      8.45110      3.92250      2.69421         0.005157      0.000000     -0.027026
C      7.77890      1.30750      0.90921        -0.005157      0.000000     -0.027026
N     -1.11405      1.30750     -0.12624        -0.048416      0.000000      0.084635
N      6.52405      3.92250      1.65876         0.048416      0.000000      0.084635
N      1.11405      3.92250      0.12624         0.048416      0.000000     -0.084635
N      4.29595      1.30750      1.91124        -0.048416      0.000000     -0.084635
O      3.24247      1.30750      1.38477         0.022959      0.000000      0.064052
O      2.16753      3.92250      3.16977        -0.022959     -0.000000      0.064052
O      7.57753      3.92250      2.18523        -0.022959     -0.000000     -0.064052
O      8.65247      1.30750      0.40023         0.022959      0.000000     -0.064052
