56
# total energy = -353.17852263 eVH      5.17049      2.29062      4.06647        -0.052646      0.045844     -0.052247
H      6.55972      1.98778      5.11059         0.081913     -0.042553     -0.046690
H      3.07911      1.99804      4.85699        -0.027170     -0.002739      0.021659
H      2.78082      1.28672      6.43818         0.040389      0.014105     -0.074979
H      5.21085      5.56637      1.55971         0.052646      0.045844      0.052247
H      3.82163      5.26353      0.51558        -0.081913     -0.042553      0.046690
H      0.38134      5.27379      0.77643         0.027170     -0.002739     -0.021659
H      0.67962      4.56247     10.46934        -0.040389      0.014105      0.074979
H      1.75041      4.26088      7.20038         0.052646     -0.045844      0.052247
H      0.36118      4.56372      6.15626        -0.081913      0.042553      0.046690
H      3.84179      4.55346      6.40986         0.027170      0.002739     -0.021659
H      4.14007      5.26478      4.82867        -0.040389     -0.014105      0.074979
H      1.71004      0.98513      9.70714        -0.052646     -0.045844     -0.052247
H      3.09927      1.28797     10.75127         0.081913      0.042553     -0.046690
H      6.53955      1.27771     10.49042        -0.027170      0.002739      0.021659
H      6.24127      1.98903      0.79751         0.040389     -0.014105     -0.074979
C      5.31581      1.10237      7.19744        -0.067204      0.039090     -0.049812
C      4.75244      1.57091      5.93416         0.096693      0.028114     -0.108549
C      5.06553      4.37812      9.70284         0.067204      0.039090      0.049812
C      5.62890      4.84666     10.96612        -0.096693      0.028114      0.108549
C      1.60508      5.44913      4.06941         0.067204     -0.039090      0.049812
C      2.16846      4.98059      5.33269        -0.096693     -0.028114      0.108549
C      1.85536      2.17338      1.56401        -0.067204     -0.039090     -0.049812
C      1.29199      1.70484      0.30074         0.096693     -0.028114     -0.108549
N      6.69062      0.94517      7.42578         0.143485      0.021256      0.006120
N      4.45102      0.83224      8.28225        -0.037893     -0.030765      0.087720
N      5.55419      1.96508      4.95404        -0.066629     -0.012809      0.049550
N      3.43660      1.66668      5.75487        -0.017143     -0.067923      0.094926
N      3.69072      4.22092      9.47450        -0.143485      0.021256     -0.006120
N      5.93032      4.10799      8.61803         0.037893     -0.030765     -0.087720
N      4.82716      5.24083      0.67214         0.066629     -0.012809     -0.049550
N      0.02385      4.94243     11.15266         0.017143     -0.067923     -0.094926
N      0.23028      5.60633      3.84107        -0.143485     -0.021256     -0.006120
N      2.46987      5.71926      2.98460         0.037893      0.030765     -0.087720
N      1.36671      4.58642      6.31281         0.066629      0.012809     -0.049550
N      3.48429      4.88482      5.51199         0.017143      0.067923     -0.094926
N      3.23017      2.33058      1.79236         0.143485     -0.021256      0.006120
N      0.99057      2.44351      2.64882        -0.037893      0.030765      0.087720
N      2.09374      1.31067     10.59471        -0.066629      0.012809      0.049550
N     -0.02385      1.60907      0.12144        -0.017143      0.067923      0.094926
O      0.17758      0.37815      8.47798        -0.057056     -0.005290      0.077420
O      0.58727      1.32130      6.54580        -0.075221      0.028682     -0.026229
O      3.30614      0.37530      8.03875         0.009445      0.046439     -0.030908
O      4.81257      1.07798      9.45767         0.036731     -0.027164     -0.011016
O      3.28287      3.65390      8.42955         0.057056     -0.005290     -0.077420
O      2.87318      4.59705     10.36172         0.075221      0.028682      0.026229
O      0.15431      3.65105      8.86878        -0.009445      0.046439      0.030908
O      5.56877      4.35373      7.44260        -0.036731     -0.027164      0.011016
O      6.74332      6.17335      2.78887         0.057056      0.005290     -0.077420
O      6.33363      5.23020      4.72105         0.075221     -0.028682      0.026229
O      3.61475      6.17620      3.22811        -0.009445     -0.046439      0.030908
O      2.10832      5.47352      1.80918        -0.036731      0.027164      0.011016
O      3.63802      2.89760      2.83730        -0.057056      0.005290      0.077420
O      4.04772      1.95445      0.90513        -0.075221     -0.028682     -0.026229
O      6.76659      2.90045      2.39807         0.009445     -0.046439     -0.030908
O      1.35212      2.19777      3.82425         0.036731      0.027164     -0.011016
