16
# total energy = -97.05508461 eVH      1.44561      4.27661      1.39006         0.892713      0.892713      0.885692
H      0.79736      3.62836     -0.09439         0.065233      0.065233      0.934414
H      4.21639      1.38539      1.39006        -0.892713     -0.892713      0.885692
H      4.86464      2.03364     -0.09439        -0.065233     -0.065233      0.934414
H      4.27661      4.21639      3.32594         0.892713     -0.892713     -0.885692
H      3.62836      4.86464      0.09439         0.065233     -0.065233     -0.934414
H      1.38539      1.44561      3.32594        -0.892713      0.892713     -0.885692
H      2.03364      0.79736      0.09439        -0.065233      0.065233     -0.934414
C     -0.00000      2.83100      1.61279        -0.000000     -0.000000      2.370368
C      2.83100      0.00000      3.10321         0.000000      0.000000     -2.370368
N      0.81930      3.65030      0.95258        -0.864187     -0.864187     -2.670094
N      4.84270      2.01170      0.95258         0.864187      0.864187     -2.670094
N      3.65030      4.84270      3.76342        -0.864187      0.864187      2.670094
N      2.01170      0.81930      3.76342         0.864187     -0.864187      2.670094
O     -0.00000      2.83100      2.91731         0.000000      0.000000     -0.792045
O      2.83100      0.00000      1.79869        -0.000000      0.000000      0.792045
