40
# total energy = -171.89175847 eVO      1.05948      2.47308      2.36883        -0.006102      0.008954      0.007987
O      1.05948      7.73308      0.44983        -0.006102      0.008954      0.007987
O      7.47298      2.47308      0.44983        -0.006102      0.008954      0.007987
O      7.47298      7.73308      2.36883        -0.006102      0.008954      0.007987
O     11.76752      8.04692      2.36883         0.006102     -0.008954      0.007987
O     11.76752      2.78692      0.44983         0.006102     -0.008954      0.007987
O      5.35402      8.04692      0.44983         0.006102     -0.008954      0.007987
O      5.35402      2.78692      2.36883         0.006102     -0.008954      0.007987
O      4.26623      0.15692      3.32833        -0.006102     -0.008954      0.007987
O      4.26623      5.41692      1.40933        -0.006102     -0.008954      0.007987
O     10.67973      0.15692      1.40933        -0.006102     -0.008954      0.007987
O     10.67973      5.41692      3.32833        -0.006102     -0.008954      0.007987
O      2.14727      5.10308      3.32833         0.006102      0.008954      0.007987
O      2.14727     10.36308      1.40933         0.006102      0.008954      0.007987
O      8.56077      5.10308      1.40933         0.006102      0.008954      0.007987
O      8.56077     10.36308      3.32833         0.006102      0.008954      0.007987
O     -0.00000      0.00000      3.18913        -0.000000      0.000000     -0.003160
O     -0.00000      5.26000      1.27013        -0.000000      0.000000     -0.003160
O      6.41350      0.00000      1.27013        -0.000000      0.000000     -0.003160
O      6.41350      5.26000      3.18913        -0.000000      0.000000     -0.003160
O      3.20675      2.63000      0.31063        -0.000000      0.000000     -0.003160
O      3.20675      7.89000      2.22963        -0.000000      0.000000     -0.003160
O      9.62025      2.63000      2.22963        -0.000000      0.000000     -0.003160
O      9.62025      7.89000      0.31063        -0.000000      0.000000     -0.003160
Au     12.23589      1.39197      1.90318        -0.005718      0.000008     -0.006407
Au     12.23589      6.65197     -0.01582        -0.005718      0.000008     -0.006407
Au      5.82239      1.39197     -0.01582        -0.005718      0.000008     -0.006407
Au      5.82239      6.65197      1.90318        -0.005718      0.000008     -0.006407
Au      0.59111      9.12803      1.90318         0.005718     -0.000008     -0.006407
Au      0.59111      3.86803     -0.01582         0.005718     -0.000008     -0.006407
Au      7.00461      9.12803     -0.01582         0.005718     -0.000008     -0.006407
Au      7.00461      3.86803      1.90318         0.005718     -0.000008     -0.006407
Au      2.61564      1.23803      2.86268        -0.005718     -0.000008     -0.006407
Au      2.61564      6.49803      0.94368        -0.005718     -0.000008     -0.006407
Au      9.02914      1.23803      0.94368        -0.005718     -0.000008     -0.006407
Au      9.02914      6.49803      2.86268        -0.005718     -0.000008     -0.006407
Au      3.79786      4.02197      2.86268         0.005718      0.000008     -0.006407
Au      3.79786      9.28197      0.94368         0.005718      0.000008     -0.006407
Au     10.21136      4.02197      0.94368         0.005718      0.000008     -0.006407
Au     10.21136      9.28197      2.86268         0.005718      0.000008     -0.006407
