12
# total energy = -41.92521111 eVC      1.99602      1.30750      0.84279         0.695357      0.000000      0.216555
C      3.41398      3.92250      2.62779        -0.695357     -0.000000      0.216555
C      8.82398      3.92250      2.72721        -0.695357     -0.000000     -0.216555
C      7.40602      1.30750      0.94221         0.695357      0.000000     -0.216555
N      0.27095      1.30750      0.23691        -0.541596     -0.000000     -0.067200
N      5.13905      3.92250      2.02191         0.541596      0.000000     -0.067200
N     10.54905      3.92250      3.33309         0.541596      0.000000      0.067200
N      5.68095      1.30750      1.54809        -0.541596     -0.000000      0.067200
O      3.05204      1.30750      1.23079        -0.539300     -0.000000     -0.301606
O      2.35796      3.92250      3.01579         0.539300     -0.000000     -0.301606
O      7.76796      3.92250      2.33921         0.539300      0.000000      0.301606
O      8.46204      1.30750      0.55421        -0.539300      0.000000      0.301606
