56
# total energy = -352.76279406 eVH      5.14707      2.27188      4.08454         0.083333      0.092546     -0.090301
H      6.53557      1.99190      5.16256         0.779796      0.045946     -0.309681
H      3.08247      1.98136      4.88606         0.052852      0.288394     -0.672430
H      2.79635      1.31075      6.40661        -0.348714     -0.391757      0.681320
H      5.23428      5.54763      1.54164        -0.083333      0.092546      0.090301
H      3.84577      5.26765      0.46362        -0.779796      0.045946      0.309681
H      0.37798      5.25711      0.74736        -0.052852      0.288394      0.672430
H      0.66410      4.58650     10.50092         0.348714     -0.391757     -0.681320
H      1.77383      4.27962      7.18231        -0.083333     -0.092546      0.090301
H      0.38532      4.55960      6.10429        -0.779796     -0.045946      0.309681
H      3.83843      4.57014      6.38079        -0.052852     -0.288394      0.672430
H      4.12455      5.24075      4.86025         0.348714      0.391757     -0.681320
H      1.68662      1.00387      9.72521         0.083333     -0.092546     -0.090301
H      3.07512      1.28385     10.80324         0.779796     -0.045946     -0.309681
H      6.54292      1.29439     10.51949         0.052852     -0.288394     -0.672430
H      6.25680      1.96500      0.76593        -0.348714      0.391757      0.681320
C      5.30962      1.10362      7.18371         0.553394     -0.218906      0.697509
C      4.78789      1.56504      5.94450        -1.889638      0.087811     -0.266472
C      5.07172      4.37937      9.71657        -0.553394     -0.218906     -0.697509
C      5.59345      4.84079     10.95577         1.889638      0.087811      0.266472
C      1.61127      5.44788      4.08314        -0.553394      0.218906     -0.697509
C      2.13300      4.98646      5.32235         1.889638     -0.087811      0.266472
C      1.84917      2.17213      1.55028         0.553394      0.218906      0.697509
C      1.32744      1.71071      0.31108        -1.889638     -0.087811     -0.266472
N      6.67384      0.94269      7.41792         0.546740     -0.003398      0.076361
N      4.45523      0.83614      8.26560        -0.430705     -0.123986      0.405904
N      5.55026      1.95810      4.96715         0.467472      0.270497     -0.753732
N      3.46867      1.67166      5.76157         0.120676     -0.015504      0.134626
N      3.70751      4.21844      9.48236        -0.546740     -0.003398     -0.076361
N      5.92612      4.11189      8.63468         0.430705     -0.123986     -0.405904
N      4.83108      5.23385      0.65903        -0.467472      0.270497      0.753732
N     -0.00822      4.94741     11.14596        -0.120676     -0.015504     -0.134626
N      0.24706      5.60881      3.84893        -0.546740      0.003398     -0.076361
N      2.46567      5.71536      3.00125         0.430705      0.123986     -0.405904
N      1.37064      4.59340      6.29970        -0.467472     -0.270497      0.753732
N      3.45223      4.87984      5.50529        -0.120676      0.015504     -0.134626
N      3.21339      2.33306      1.78450         0.546740      0.003398      0.076361
N      0.99478      2.43961      2.63218        -0.430705      0.123986      0.405904
N      2.08981      1.31765     10.60782         0.467472     -0.270497     -0.753732
N      0.00822      1.60409      0.12814         0.120676      0.015504      0.134626
O      0.15854      0.37677      8.47015         0.037160     -0.014800      0.029301
O      0.57227      1.32054      6.53630        -0.018481      0.010019      0.038312
O      3.31144      0.37103      8.02740         0.095830      0.056927      0.053321
O      4.82295      1.08798      9.43892        -0.038926     -0.033796     -0.080350
O      3.30191      3.65252      8.43737        -0.037160     -0.014800     -0.029301
O      2.88818      4.59629     10.37123         0.018481      0.010019     -0.038312
O      0.14901      3.64678      8.88013        -0.095830      0.056927     -0.053321
O      5.55840      4.36373      7.46136         0.038926     -0.033796      0.080350
O      6.76236      6.17473      2.79670        -0.037160      0.014800     -0.029301
O      6.34863      5.23096      4.73055         0.018481     -0.010019     -0.038312
O      3.60945      6.18047      3.23946        -0.095830     -0.056927     -0.053321
O      2.09795      5.46352      1.82794         0.038926      0.033796      0.080350
O      3.61898      2.89898      2.82948         0.037160      0.014800      0.029301
O      4.03272      1.95521      0.89562        -0.018481     -0.010019      0.038312
O      6.77189      2.90472      2.38672         0.095830     -0.056927      0.053321
O      1.36250      2.18777      3.80549        -0.038926      0.033796     -0.080350
