12
# total energy = -46.64405616 eVC      2.20963      1.30750      0.90174        -2.267486      0.000000     -0.768001
C      3.20037      3.92250      2.68674         2.267486      0.000000     -0.768001
C      8.61037      3.92250      2.66826         2.267486      0.000000      0.768001
C      7.61963      1.30750      0.88326        -2.267486      0.000000      0.768001
N     -0.38386      1.30750      0.03132        -4.062388      0.000000      1.283533
N      5.79386      3.92250      1.81632         4.062388     -0.000000      1.283533
N      0.38386      3.92250      3.53868         4.062388     -0.000000     -1.283533
N      5.02614      1.30750      1.75368        -4.062388     -0.000000     -1.283533
O      3.14490      1.30750      1.20599         6.834024      0.000000      2.204223
O      2.26510      3.92250      2.99099        -6.834024      0.000000      2.204223
O      7.67510      3.92250      2.36401        -6.834024     -0.000000     -2.204223
O      8.55490      1.30750      0.57901         6.834024      0.000000     -2.204223
