38
# total energy = -218.70215456 eVH      3.51083      1.49582      2.13617        -0.022289      0.033167      0.000280
H      3.85236      2.78240      1.01944        -0.078519     -0.067935      0.012751
H      2.80774      3.05368      2.31945         0.020994     -0.027867     -0.043426
H      2.32926      2.02922      1.03176         0.007719      0.026926     -0.013539
H      3.22003     10.08881     -0.12409         0.014197      0.063280     -0.003287
H      4.50617      8.81318      2.13617         0.022289     -0.033167      0.000280
H      4.16464      7.52660      1.01944         0.078519      0.067935      0.012751
H      5.20926      7.25532      2.31945        -0.020994      0.027867     -0.043426
H      5.68774      8.27978      1.03176        -0.007719     -0.026926     -0.013539
H      4.79697      0.22019     -0.12409        -0.014197     -0.063280     -0.003287
H      0.49767      6.65032      1.59883         0.022289      0.033167     -0.000280
H      0.15614      7.93690      2.71556         0.078519     -0.067935     -0.012751
H      1.20076      8.20818      1.41555        -0.020994     -0.027867      0.043426
H      1.67924      7.18372      2.70324        -0.007719      0.026926      0.013539
H      0.78847      4.93431      0.12409        -0.014197      0.063280      0.003287
H      7.51933      3.65868      1.59883        -0.022289     -0.033167     -0.000280
H      7.86086      2.37210      2.71556        -0.078519      0.067935     -0.012751
H      6.81624      2.10082      1.41555         0.020994      0.027867      0.043426
H      6.33776      3.12528      2.70324         0.007719     -0.026926      0.013539
H      7.22853      5.37469      0.12409         0.014197     -0.063280      0.003287
C      0.74730      0.24475      0.24364        -0.011869      0.043818      0.013331
C      7.26970     10.06425      0.24364         0.011869     -0.043818      0.013331
C      3.26120      5.39925      3.49136         0.011869      0.043818     -0.013331
C      4.75580      4.90975      3.49136        -0.011869     -0.043818     -0.013331
N      3.12815      2.33098      1.63256         0.025333      0.003314     -0.022931
N      4.88885      7.97802      1.63256        -0.025333     -0.003314     -0.022931
N      0.88035      7.48548      2.10244        -0.025333      0.003314      0.022931
N      7.13665      2.82352      2.10244         0.025333     -0.003314      0.022931
O      1.64272      9.69883      0.51704        -0.031727     -0.037922      0.001604
O      0.95343      1.47023     -0.01538         0.055167      0.003582      0.011800
O      6.37428      0.61017      0.51704         0.031727      0.037922      0.001604
O      7.06357      8.83877     -0.01538        -0.055167     -0.003582      0.011800
O      2.36578      4.54433      3.21796         0.031727     -0.037922     -0.001604
O      3.05507      6.62473      0.01538        -0.055167      0.003582     -0.011800
O      5.65122      5.76467      3.21796        -0.031727      0.037922     -0.001604
O      4.96193      3.68427      0.01538         0.055167     -0.003582     -0.011800
O      4.00850      0.00000      3.03734        -0.000000      0.000000     -0.008313
O      0.00000      5.15450      0.69766        -0.000000      0.000000      0.008313
