36
# total energy = -212.58520931 eVH      4.13947      2.32795      2.25283        -1.643508      0.885400      1.307044
H      4.17306      1.48478     -0.19845         1.843133      1.714611      2.568759
H      6.93386      1.00652      0.79421        -0.032873      0.156972     -6.743450
H      0.54695      0.66857      3.30838         0.836736     -0.291467     -0.022169
H      6.42579      0.85586      4.26560         2.265030     -1.542429      1.392163
H      5.04675      1.62011      4.20930        -3.615381      1.426120      1.825916
H      4.13947      1.18805      9.43183        -1.643508     -0.885400      1.307044
H      4.17306      2.03122      6.98055         1.843133     -1.714611      2.568759
H      6.93386      2.50948      7.97321        -0.032873     -0.156972     -6.743450
H      0.54695      2.84743     10.48738         0.836736      0.291467     -0.022169
H      6.42579      2.66014     11.44460         2.265030      1.542429      1.392163
H      5.04675      1.89589     11.38830        -3.615381     -1.426120      1.825916
C      5.85025      1.38530      2.44563        -2.653336      0.904783     -1.434406
C      5.85025      2.13070      9.62463        -2.653336     -0.904783     -1.434406
N      1.58137      3.42644      5.42769        -0.491732      0.307537      0.199617
N      1.44619      3.14151      6.78092        -0.031389      0.102890     -0.305100
N      2.70293      3.02524      4.83841         0.092389     -0.058491     -0.404401
N      4.80109      1.76842      1.79885        -3.750941      0.864708     -1.568233
N      6.77267      1.03607      1.68853         5.892849     -2.563820      5.236506
N      5.81114      1.35915      3.72395         1.839948     -0.065707      0.473356
N      1.58137      0.08956     12.60669        -0.491732     -0.307537      0.199617
N      1.44619      0.37449     13.95992        -0.031389     -0.102890     -0.305100
N      2.70293      0.49076     12.01741         0.092389      0.058491     -0.404401
N      4.80109      1.74758      8.97785        -3.750941     -0.864708     -1.568233
N      6.77267      2.47993      8.86753         5.892849      2.563820      5.236506
N      5.81114      2.15685     10.90295         1.839948      0.065707      0.473356
O      2.27672      2.61069      7.50379         0.869448     -0.560432      0.528154
O      0.33926     -0.01591      7.19411        -1.265543      0.462960      0.281654
O      3.65233      2.42659      5.38492         0.892979     -0.569728      0.428014
O      2.73152      3.28375      3.61781        -0.008545      0.228051     -0.668110
O      4.84570      2.14481      0.48213        -1.039265     -1.621887     -3.095313
O      2.27672      0.90531      0.32479         0.869448      0.560432      0.528154
O      0.33926      0.01591      0.01511        -1.265543     -0.462960      0.281654
O      3.65233      1.08941     12.56392         0.892979      0.569728      0.428014
O      2.73152      0.23225     10.79681        -0.008545     -0.228051     -0.668110
O      4.84570      1.37119      7.66113        -1.039265      1.621887     -3.095313
