48
# total energy = -181.35387473 eVC      5.15091      3.17874      7.92839        -1.860632     -0.627777     -1.719331
C      4.68233      2.01619      5.86771        -0.228265      0.122874      0.184539
C      6.18634      1.49945      5.57676         1.655590      1.017820      2.762776
C      7.21238      1.92799      6.65097        -1.321037      0.306250     -0.023986
C      5.01199      0.77706      3.91493         0.256761     -0.817520     -1.190138
C      1.40883      6.88074      1.32454         1.860632     -0.627777      1.719331
C      1.87741      5.71819      3.38522         0.228265      0.122874     -0.184539
C      0.37340      5.20145      3.67617        -1.655590      1.017820     -2.762776
C     12.46685      5.62999      8.69182         1.321037      0.306250      0.023986
C      1.54775      4.47906      5.33800        -0.256761     -0.817520      1.190138
C      7.96857      4.22526      4.36947         1.860632      0.627777      1.719331
C      8.43716      5.38781      6.43015         0.228265     -0.122874     -0.184539
C      6.93314      5.90455      6.72111        -1.655590     -1.017820     -2.762776
C      5.90710      5.47601      5.64689         1.321037     -0.306250      0.023986
C      8.10750      6.62694      8.38293        -0.256761      0.817520      1.190138
C     11.71065      0.52326     10.97332        -1.860632      0.627777     -1.719331
C     11.24207      1.68581      8.91264        -0.228265     -0.122874      0.184539
C     12.74609      2.20255      8.62169         1.655590     -1.017820      2.762776
C      0.65264      1.77401      3.60604        -1.321037     -0.306250     -0.023986
C     11.57173      2.92494      6.95986         0.256761      0.817520     -1.190138
N      6.30360      2.79179      7.80845        -1.733657      1.145365      1.128265
N      4.40108      2.68139      6.83328         0.771675      0.044855      0.194773
N      6.03213      1.03126      4.68479        -3.887230     -0.076427     -1.585775
N      4.29006      1.45189      4.76858         2.567839     -0.921329     -0.532678
N      0.25614      6.49379      1.44448         1.733657      1.145365     -1.128265
N      2.15866      6.38339      2.41965        -0.771675      0.044855     -0.194773
N      0.52761      4.73326      4.56814         3.887230     -0.076427      1.585775
N      2.26968      5.15389      4.48435        -2.567839     -0.921329      0.532678
N      6.81588      4.61221      4.48941         1.733657     -1.145365     -1.128265
N      8.71840      4.72261      5.46458        -0.771675     -0.044855     -0.194773
N      7.08735      6.37274      7.61307         3.887230      0.076427      1.585775
N      8.82942      5.95211      7.52928        -2.567839      0.921329      0.532678
N     12.86334      0.91021     10.85338        -1.733657     -1.145365      1.128265
N     10.96083      1.02061      9.87821         0.771675     -0.044855      0.194773
N     12.59188      2.67074      7.72972        -3.887230      0.076427     -1.585775
N     10.84980      2.25011      7.81352         2.567839      0.921329     -0.532678
O      4.95778      3.77746      2.56637         2.076174      0.548947      1.617464
O      8.19401      1.68567      6.65842         2.192138     -0.795560     -0.162208
O      4.67072      0.23268      2.87274        -0.629761     -0.321463     -0.637944
O      1.60197      0.07546      6.68656        -2.076174      0.548947     -1.617464
O     11.48521      5.38767      8.68437        -2.192138     -0.795560      0.162208
O      1.88902      3.93468      6.38019         0.629761     -0.321463      0.637944
O      8.16171      3.62654      9.73149        -2.076174     -0.548947     -1.617464
O      4.92547      5.71833      5.63944        -2.192138      0.795560      0.162208
O      8.44876      7.17132      9.42513         0.629761      0.321463      0.637944
O     11.51752      7.32854      5.61131         2.076174     -0.548947      1.617464
O      1.63427      2.01633      3.61349         2.192138      0.795560     -0.162208
O     11.23047      3.46932      5.91767        -0.629761      0.321463     -0.637944
