12
# total energy = -41.13552918 eVC      1.98590      1.30750      0.84535        -1.727305     -0.000000     -0.716209
C      3.42410      3.92250      2.63035         1.727305     -0.000000     -0.716209
C      8.83410      3.92250      2.72465         1.727305     -0.000000      0.716209
C      7.39590      1.30750      0.93965        -1.727305      0.000000      0.716209
N      0.44980      1.30750      0.30074        -0.986450     -0.000000     -0.398368
N      4.96020      3.92250      2.08574         0.986450     -0.000000     -0.398368
N     10.37020      3.92250      3.26926         0.986450     -0.000000      0.398368
N      5.85980      1.30750      1.48426        -0.986450     -0.000000      0.398368
O      2.95721      1.30750      1.20602         2.072805     -0.000000      0.719893
O      2.45279      3.92250      2.99102        -2.072805      0.000000      0.719893
O      7.86279      3.92250      2.36398        -2.072805      0.000000     -0.719893
O      8.36721      1.30750      0.57898         2.072805      0.000000     -0.719893
