48
# total energy = -199.67174115 eVC      5.03816      3.22970      7.96828       -11.057583      0.211334     -4.002823
C      4.52498      2.07477      5.89658        -0.456920     -0.952688     -1.694158
C      6.33630      1.44161      5.57951         1.441414     -0.808161     -0.823101
C      7.31075      1.88166      6.60211        -3.955918      1.375256      0.004983
C      5.06262      0.69178      3.78872         0.840071     -1.632489     -2.463212
C      1.52158      6.93170      1.28465        11.057583      0.211334      4.002823
C      2.03476      5.77677      3.35635         0.456920     -0.952688      1.694158
C      0.22344      5.14361      3.67342        -1.441414     -0.808161      0.823101
C     12.36848      5.58366      8.74068         3.955918      1.375256     -0.004983
C      1.49712      4.39378      5.46421        -0.840071     -1.632489      2.463212
C      8.08133      4.17430      4.32958        11.057583     -0.211334      4.002823
C      8.59450      5.32923      6.40128         0.456920      0.952688      1.694158
C      6.78318      5.96239      6.71835        -1.441414      0.808161      0.823101
C      5.80874      5.52234      5.69575         3.955918     -1.375256     -0.004983
C      8.05687      6.71222      8.50914        -0.840071      1.632489      2.463212
C     11.59790      0.47230     11.01321       -11.057583     -0.211334     -4.002823
C     11.08472      1.62723      8.94151        -0.456920      0.952688     -1.694158
C     12.89605      2.26039      8.62444         1.441414      0.808161     -0.823101
C      0.75100      1.82034      3.55718        -3.955918     -1.375256      0.004983
C     11.62236      3.01022      6.83366         0.840071      1.632489     -2.463212
N      6.00439      2.96468      7.97047         3.487566      1.364242      3.172101
N      4.53873      2.63834      6.78956        -0.476557      1.508883      2.433994
N      5.71108      1.11427      4.75823         8.457546     -0.557685      2.539795
N      4.55290      1.38089      4.76100        -8.884219      1.634408     -0.602208
N      0.55536      6.66668      1.28247        -3.487566      1.364242     -3.172101
N      2.02101      6.34034      2.46337         0.476557      1.508883     -2.433994
N      0.84866      4.81627      4.49470        -8.457546     -0.557685     -2.539795
N      2.00684      5.08289      4.49193         8.884219      1.634408      0.602208
N      7.11510      4.43932      4.32740        -3.487566     -1.364242     -3.172101
N      8.58075      4.76566      5.50830         0.476557     -1.508883     -2.433994
N      7.40841      6.28973      7.53963        -8.457546      0.557685     -2.539795
N      8.56658      6.02311      7.53686         8.884219     -1.634408      0.602208
N     12.56413      0.73732     11.01540         3.487566     -1.364242      3.172101
N     11.09848      1.06366      9.83449        -0.476557     -1.508883      2.433994
N     12.27082      2.58773      7.80316         8.457546      0.557685      2.539795
N     11.11265      2.32111      7.80594        -8.884219     -1.634408     -0.602208
O      5.19793      3.73401      2.59620         6.413804     -0.177674      2.157819
O      8.22882      1.61980      6.67033         4.437861     -1.064247      0.247366
O      4.57392      0.19799      2.82198        -1.269205     -0.573672     -1.353649
O      1.36182      0.03201      6.65673        -6.413804     -0.177674     -2.157819
O     11.45041      5.32180      8.67246        -4.437861     -1.064247     -0.247366
O      1.98582      3.89999      6.43096         1.269205     -0.573672      1.353649
O      7.92156      3.66999      9.70166        -6.413804      0.177674     -2.157819
O      4.89067      5.78420      5.62753        -4.437861      1.064247     -0.247366
O      8.54557      7.20601      9.47589         1.269205      0.573672      1.353649
O     11.75767      7.37199      5.64113         6.413804      0.177674      2.157819
O      1.66907      2.08220      3.62540         4.437861      1.064247      0.247366
O     11.13366      3.50401      5.86691        -1.269205      0.573672     -1.353649
