16
# total energy = -79.00572999 eVC      2.84213      0.67430      1.28765         0.454899     -4.273937     -0.217859
C      2.49386      5.20430      1.76146        -0.454899     -4.273937      0.217859
C      0.71519      8.38570      5.41176        -0.454899      4.273937      0.217859
C      1.06347      3.85570      4.93795         0.454899      4.273937     -0.217859
N     -0.26079      0.79919      0.16534         0.864232    -14.328165     -2.582789
N      0.02053      1.93239      0.31793         1.485862     10.297838      1.290459
N      2.03945      5.32919      3.18436        -0.864232    -14.328165      2.582789
N      1.75813      6.46239      3.03177        -1.485862     10.297838     -1.290459
N      0.26079      8.26081     -0.16534        -0.864232     14.328165      2.582789
N     -0.02053      7.12761      6.68207        -1.485862    -10.297838     -1.290459
N      1.51788      3.73081      3.51505         0.864232     14.328165     -2.582789
N      1.79919      2.59761      3.66764         1.485862    -10.297838      1.290459
O      2.50149      1.40541      1.87818        -0.602066      4.829666      0.921810
O      2.83449      5.93541      1.17093         0.602066      4.829666     -0.921810
O      1.05583      7.65459      4.82123         0.602066     -4.829666     -0.921810
O      0.72283      3.12459      5.52848        -0.602066     -4.829666      0.921810
