44
# total energy = -298.83934072 eVH      8.35028      8.46196      1.91075         0.349374     -0.359695      0.770309
H      8.41403      9.00293      0.25971         0.396836      0.113267     -0.818772
H      2.45596      5.56525      3.99449         0.537301      0.600961     -0.055325
H      1.22711      4.45864      3.59912        -0.744693     -0.549341     -0.423507
H      0.71297      1.46722      0.57940        -0.349374      0.359695     -0.770309
H      0.64923      0.92624      2.23044        -0.396836     -0.113267      0.818772
H      6.60730      4.36392     -1.50434        -0.537301     -0.600961      0.055325
H      7.83614      5.47053     -1.10897         0.744693      0.549341      0.423507
C      6.74778      1.56553      2.38754        -0.340856      0.006911      0.336721
C      2.01636      4.24445      5.44259         0.185036      0.434978     -0.514926
C      2.31547      8.36364      0.10261         0.340856     -0.006911     -0.336721
C      7.04689      5.68472     -2.95244        -0.185036     -0.434978      0.514926
N      5.99864      2.20200      1.50083        -0.683180      0.502636     -0.514201
N      7.90200      8.87023      1.10855         1.398427     -0.665738     -0.282893
N      6.47855      2.39002      0.26081         0.139010      0.015732     -0.180432
N      6.24327      1.42816      3.65931        -1.130499      0.401301      0.532432
N      5.09679      1.92360      3.79482         2.690150     -1.112157     -0.449870
N      4.08891      2.30918      4.08392        -2.557714      0.963266      0.755038
N      1.32860      3.26834      5.98487        -0.514924     -1.057765      0.843948
N      1.86764      4.79697      4.28337         0.125040      0.925289     -1.342358
N      0.32724      2.70412      5.28414        -0.230544     -0.241583     -0.044322
N      3.03331      4.82057     -0.96641         0.417377     -0.242551      1.265775
N      3.07167      4.38641      0.21337        -0.031827      0.944287     -2.614628
N      3.21564      4.10305      1.28370         0.373553     -0.684708      2.684157
N      3.06462      7.72718      0.98932         0.683180     -0.502636      0.514201
N      1.16125      1.05894      1.38160        -1.398427      0.665738      0.282893
N      2.58471      7.53916      2.22934        -0.139010     -0.015732      0.180432
N      2.81999      0.64112     -0.02113         1.130499     -0.401301     -0.532432
N      3.96647      8.00557     -1.30467        -2.690150      1.112157      0.449870
N      4.97434      7.62000     -1.59377         2.557714     -0.963266     -0.755038
N      7.73465      6.66083     -3.49472         0.514924      1.057765     -0.843948
N      7.19561      5.13220     -1.79322        -0.125040     -0.925289      1.342358
N      8.73602      7.22505     -2.79399         0.230544      0.241583      0.044322
N      6.02994      5.10860      3.45656        -0.417377      0.242551     -1.265775
N      5.99159      5.54276      2.27678         0.031827     -0.944287      2.614628
N      5.84762      5.82612      1.20645        -0.373553      0.684708     -2.684157
O      5.68893      2.97603     -0.52156        -0.207609      0.219605     -0.202560
O      7.61796      2.02612     -0.11750         0.047697     -0.027934      0.037559
O      8.72730      3.91887      2.42298        -0.041736     -0.126549      0.195647
O      0.05794      2.99317      4.09076         0.028832      0.001839     -0.047474
O      3.37433      6.95315      3.01171         0.207609     -0.219605      0.202560
O      1.44530      7.90306      2.60765        -0.047697      0.027934     -0.037559
O      0.33596      6.01031      0.06717         0.041736      0.126549     -0.195647
O      9.00532      6.93600     -1.60061        -0.028832     -0.001839      0.047474
