12
# total energy = -68.71054543 eVC      2.47530      1.30750      0.97506       -17.961473      0.000000     -4.925949
C      2.93470      3.92250      2.76006        17.961473      0.000000     -4.925949
C      8.34470      3.92250      2.59494        17.961473     -0.000000      4.925949
C      7.88530      1.30750      0.80994       -17.961473      0.000000      4.925949
N     -1.19828      1.30750     -0.22436        -4.972888      0.000000      4.930838
N      6.60828      3.92250      1.56064         4.972888      0.000000      4.930838
N      1.19828      3.92250      0.22436         4.972888      0.000000     -4.930838
N      4.21172      1.30750      2.00936        -4.972888      0.000000     -4.930838
O      3.26041      1.30750      1.17515        22.957713      0.000000      9.857010
O      2.14959      3.92250      2.96015       -22.957713      0.000000      9.857010
O      7.55959      3.92250      2.39485       -22.957713     -0.000000     -9.857010
O      8.67041      1.30750      0.60985        22.957713     -0.000000     -9.857010
