40
# total energy = -224.80442294 eVH      6.12628      1.33826      6.13771        -0.045599     -0.015221      0.020053
H      4.91851      3.03623      4.95916         0.064165      0.042828     -0.034086
H      5.81122      4.27817      3.98171        -0.027960     -0.037573      0.015862
H      5.83954      4.33757      5.78887        -0.026988     -0.056568     -0.033381
H      6.12401      1.31538      3.69194         0.194446      0.118681     -0.032519
H      4.41692      4.15314      1.78501         0.045599      0.015221      0.020053
H      5.62469      2.45517      0.60646        -0.064165     -0.042828     -0.034086
H      4.73198      1.21323      8.33441         0.027960      0.037573      0.015862
H      4.70366      1.15383      1.43617         0.026988      0.056568     -0.033381
H      4.41919      4.17602      8.04464        -0.194446     -0.118681     -0.032519
H      2.61188      4.15314      1.78501        -0.045599      0.015221      0.020053
H      1.40411      2.45517      0.60646         0.064165     -0.042828     -0.034086
H      2.29682      1.21323      8.33441        -0.027960      0.037573      0.015862
H      2.32514      1.15383      1.43617        -0.026988      0.056568     -0.033381
H      2.60961      4.17602      8.04464         0.194446     -0.118681     -0.032519
H      0.90252      1.33826      6.13771         0.045599     -0.015221      0.020053
H      2.11029      3.03623      4.95916        -0.064165      0.042828     -0.034086
H      1.21758      4.27817      3.98171         0.027960     -0.037573      0.015862
H      1.18926      4.33757      5.78887         0.026988     -0.056568     -0.033381
H      0.90479      1.31538      3.69194        -0.194446      0.118681     -0.032519
H     -0.00000      2.62489      7.01393         0.000000      0.024004     -0.011637
H     -0.00000      2.61648      2.80546         0.000000     -0.081848      0.084975
H      3.51440      2.86651      2.66123         0.000000     -0.024004     -0.011637
H      3.51440      2.87492      7.15816         0.000000      0.081848      0.084975
C      5.79999      3.68773      4.90617         0.186922     -0.037125      0.010971
C      4.74321      1.80367      0.55347        -0.186922      0.037125      0.010971
C      2.28559      1.80367      0.55347         0.186922      0.037125      0.010971
C      1.22881      3.68773      4.90617        -0.186922     -0.037125      0.010971
C     -0.00000      4.78830      0.61020         0.000000     -0.122983      0.368927
C     -0.00000      1.95816      6.14453         0.000000      0.046185     -0.135535
C     -0.00000      1.94370      3.67653         0.000000     -0.067675      0.136629
C      3.51440      0.70310      4.96290         0.000000      0.122983      0.368927
C      3.51440      3.53324      1.79183         0.000000     -0.046185     -0.135535
C      3.51440      3.54770     -0.67617         0.000000      0.067675      0.136629
N     -0.00000      4.76345      1.81256         0.000000      0.008943     -0.100877
N     -0.00000      2.81349      4.90754         0.000000      0.061736      0.083401
N      3.51440      0.72795      6.16526         0.000000     -0.008943     -0.100877
N      3.51440      2.67791      0.55484         0.000000     -0.061736      0.083401
O     -0.00000      4.78346      8.08859         0.000000      0.053266     -0.319685
O      3.51440      0.70794      3.73589         0.000000     -0.053266     -0.319685
