12
# total energy = -68.75139860 eVC      2.48086      1.30750      0.97659       -18.443037      0.000000     -5.066813
C      2.92914      3.92250      2.76159        18.443037     -0.000000     -5.066813
C      8.33914      3.92250      2.59341        18.443037      0.000000      5.066813
C      7.89086      1.30750      0.80841       -18.443037     -0.000000      5.066813
N     -1.21628      1.30750     -0.22991        -4.357131      0.000000      4.555068
N      6.62628      3.92250      1.55509         4.357131      0.000000      4.555068
N      1.21628      3.92250      0.22991         4.357131      0.000000     -4.555068
N      4.19372      1.30750      2.01491        -4.357131      0.000000     -4.555068
O      3.26331      1.30750      1.17463        22.819576      0.000000      9.622193
O      2.14669      3.92250      2.95963       -22.819576      0.000000      9.622193
O      7.55669      3.92250      2.39537       -22.819576     -0.000000     -9.622193
O      8.67331      1.30750      0.61037        22.819576     -0.000000     -9.622193
