40
# total energy = -171.10845304 eVO      1.06481      2.46203      2.39557        -0.134880     -0.279276     -0.836483
O      1.06481      7.72203      0.47657        -0.134880     -0.279276     -0.836483
O      7.47831      2.46203      0.47657        -0.134880     -0.279276     -0.836483
O      7.47831      7.72203      2.39557        -0.134880     -0.279276     -0.836483
O     11.76219      8.05797      2.39557         0.134880      0.279276     -0.836483
O     11.76219      2.79797      0.47657         0.134880      0.279276     -0.836483
O      5.34869      8.05797      0.47657         0.134880      0.279276     -0.836483
O      5.34869      2.79797      2.39557         0.134880      0.279276     -0.836483
O      4.27156      0.16797      3.35507        -0.134880      0.279276     -0.836483
O      4.27156      5.42797      1.43607        -0.134880      0.279276     -0.836483
O     10.68506      0.16797      1.43607        -0.134880      0.279276     -0.836483
O     10.68506      5.42797      3.35507        -0.134880      0.279276     -0.836483
O      2.14194      5.09203      3.35507         0.134880     -0.279276     -0.836483
O      2.14194     10.35203      1.43607         0.134880     -0.279276     -0.836483
O      8.55544      5.09203      1.43607         0.134880     -0.279276     -0.836483
O      8.55544     10.35203      3.35507         0.134880     -0.279276     -0.836483
O     -0.00000      0.00000      3.19006        -0.000000     -0.000000     -0.914344
O     -0.00000      5.26000      1.27106        -0.000000     -0.000000     -0.914344
O      6.41350      0.00000      1.27106        -0.000000     -0.000000     -0.914344
O      6.41350      5.26000      3.19006        -0.000000     -0.000000     -0.914344
O      3.20675      2.63000      0.31156        -0.000000     -0.000000     -0.914344
O      3.20675      7.89000      2.23056        -0.000000     -0.000000     -0.914344
O      9.62025      2.63000      2.23056        -0.000000     -0.000000     -0.914344
O      9.62025      7.89000      0.31156        -0.000000     -0.000000     -0.914344
Au     12.22089      1.42402      1.87598         0.662991     -1.054950      1.293655
Au     12.22089      6.68402     -0.04302         0.662991     -1.054950      1.293655
Au      5.80739      1.42402     -0.04302         0.662991     -1.054950      1.293655
Au      5.80739      6.68402      1.87598         0.662991     -1.054950      1.293655
Au      0.60611      9.09598      1.87598        -0.662991      1.054950      1.293655
Au      0.60611      3.83598     -0.04302        -0.662991      1.054950      1.293655
Au      7.01961      9.09598     -0.04302        -0.662991      1.054950      1.293655
Au      7.01961      3.83598      1.87598        -0.662991      1.054950      1.293655
Au      2.60064      1.20598      2.83548         0.662991      1.054950      1.293655
Au      2.60064      6.46598      0.91648         0.662991      1.054950      1.293655
Au      9.01414      1.20598      0.91648         0.662991      1.054950      1.293655
Au      9.01414      6.46598      2.83548         0.662991      1.054950      1.293655
Au      3.81286      4.05402      2.83548        -0.662991     -1.054950      1.293655
Au      3.81286      9.31402      0.91648        -0.662991     -1.054950      1.293655
Au     10.22636      4.05402      0.91648        -0.662991     -1.054950      1.293655
Au     10.22636      9.31402      2.83548        -0.662991     -1.054950      1.293655
