16
# total energy = -102.40487834 eVC      2.53187      0.93927      1.81399        -0.141355      0.438302      0.286586
C      2.80412      5.46927      1.23513         0.141355      0.438302     -0.286586
C      1.02545      8.12073      4.88542         0.141355     -0.438302     -0.286586
C      0.75321      3.59073      5.46428        -0.141355     -0.438302      0.286586
N     -0.00046      0.62336     -0.05928         0.242633     -0.310835      0.480362
N     -0.22036      1.83844      0.61075        -0.317121     -0.184056     -0.109992
N      1.77912      5.15336      3.40898        -0.242633     -0.310835     -0.480362
N      1.99902      6.36844      2.73895         0.317121     -0.184056      0.109992
N      0.00046      8.43664      0.05928        -0.242633      0.310835     -0.480362
N      0.22036      7.22156      6.38925         0.317121      0.184056      0.109992
N      1.77821      3.90664      3.29043         0.242633      0.310835      0.480362
N      1.55830      2.69156      3.96046        -0.317121      0.184056     -0.109992
O      2.78386      1.86938      1.41182        -0.079542      0.284767      0.556159
O      2.55213      6.39938      1.63729         0.079542      0.284767     -0.556159
O      0.77347      7.19062      5.28759         0.079542     -0.284767     -0.556159
O      1.00520      2.66062      5.06211        -0.079542     -0.284767      0.556159
