38
# total energy = -218.60355867 eVH      3.53513      1.49333      2.10430        -0.075005      0.051181      0.061362
H      3.84479      2.85680      1.08176        -0.113723     -0.204128     -0.011918
H      2.77243      3.01215      2.37753         0.059365      0.029909     -0.085309
H      2.34207      2.06175      1.01112         0.153543      0.005178      0.179620
H      3.19488     10.13898     -0.10760         0.301848     -0.048600     -0.038240
H      4.48187      8.81567      2.10430         0.075005     -0.051181      0.061362
H      4.17221      7.45220      1.08176         0.113723      0.204128     -0.011918
H      5.24457      7.29685      2.37753        -0.059365     -0.029909     -0.085309
H      5.67493      8.24725      1.01112        -0.153543     -0.005178      0.179620
H      4.82212      0.17002     -0.10760        -0.301848      0.048600     -0.038240
H      0.47337      6.64783      1.63070         0.075005      0.051181     -0.061362
H      0.16371      8.01130      2.65324         0.113723     -0.204128      0.011918
H      1.23607      8.16665      1.35747        -0.059365      0.029909      0.085309
H      1.66643      7.21625      2.72388        -0.153543      0.005178     -0.179620
H      0.81362      4.98448      0.10760        -0.301848     -0.048600      0.038240
H      7.54363      3.66117      1.63070        -0.075005     -0.051181     -0.061362
H      7.85329      2.29770      2.65324        -0.113723      0.204128      0.011918
H      6.78093      2.14235      1.35747         0.059365     -0.029909      0.085309
H      6.35057      3.09275      2.72388         0.153543     -0.005178     -0.179620
H      7.20338      5.32452      0.10760         0.301848      0.048600      0.038240
C      0.74993      0.24074      0.25864         0.077721     -0.082496      0.055736
C      7.26707     10.06826      0.25864        -0.077721      0.082496      0.055736
C      3.25857      5.39524      3.47636        -0.077721     -0.082496     -0.055736
C      4.75843      4.91376      3.47636         0.077721      0.082496     -0.055736
N      3.12480      2.34500      1.65287         0.014528     -0.023285     -0.275214
N      4.89220      7.96400      1.65287        -0.014528      0.023285     -0.275214
N      0.88370      7.49950      2.08213        -0.014528     -0.023285      0.275214
N      7.13330      2.80950      2.08213         0.014528      0.023285      0.275214
O      1.64112      9.68991      0.53616        -0.057729      0.038456     -0.081313
O      0.97036      1.46179     -0.00091        -0.077052      0.097267     -0.084039
O      6.37588      0.61909      0.53616         0.057729     -0.038456     -0.081313
O      7.04664      8.84721     -0.00091         0.077052     -0.097267     -0.084039
O      2.36738      4.53541      3.19884         0.057729      0.038456      0.081313
O      3.03814      6.61629      0.00091         0.077052      0.097267      0.084039
O      5.64962      5.77359      3.19884        -0.057729     -0.038456      0.081313
O      4.97886      3.69271      0.00091        -0.077052     -0.097267      0.084039
O      4.00850      0.00000      3.06237         0.000000     -0.000000      0.000647
O     -0.00000      5.15450      0.67263         0.000000     -0.000000     -0.000647
