18
# total energy = -96.02447190 eVH      0.70704      4.13265      9.00625        -2.011740      2.236781      0.108568
H      0.64396      1.34101      0.23474        -1.749713     -2.624635     -0.618360
H      3.18159      0.49950      8.05129         1.601271     -0.281568      2.517721
H      3.10102      0.14092      0.81872         1.957313      0.751659     -2.226429
H      1.87052      2.71820      7.12117         0.059222     -2.258497     -1.983271
H      0.70704      0.54635      4.45025        -2.011740     -2.236781      0.108568
H      0.64396      3.33799      4.79074        -1.749713      2.624635     -0.618360
H      3.18159      4.17950      3.49529         1.601271      0.281568      2.517721
H      3.10102      4.53808      5.37472         1.957313     -0.751659     -2.226429
H      1.87052      1.96080      2.56517         0.059222      2.258497     -1.983271
C      1.91222      1.54100      6.08681        -0.612534      6.964685      5.036352
C      1.91222      3.13800      1.53081        -0.612534     -6.964685      5.036352
N     -0.00706      0.35689     -0.00550         0.337179      0.366429      0.160696
N     -0.00706      4.32211      4.55050         0.337179     -0.366429      0.160696
O      1.49086      2.02416      5.02421         0.254062     -2.246939     -1.124346
O      2.34238      0.57594      6.71046         0.164941     -2.099435     -1.870932
O      1.49086      2.65484      0.46821         0.254062      2.246939     -1.124346
O      2.34238      4.10306      2.15446         0.164941      2.099435     -1.870932
