36
# total energy = -216.70574782 eVH      4.02649      2.35423      2.28747         0.022685      0.021691      0.032547
H      4.21427      1.57381     -0.03764         0.082384      0.098098      0.052475
H      6.84301      0.91405      0.70586        -0.000121     -0.032918     -0.119304
H      0.71190      0.60826      3.28677         0.038091     -0.048952      0.022532
H      6.51550      0.84300      4.29085         0.039893     -0.031867     -0.035020
H      4.99904      1.71106      4.25981        -0.024151      0.040492      0.004738
H      4.02649      1.16177      9.46647         0.022685     -0.021691      0.032547
H      4.21427      1.94219      7.14136         0.082384     -0.098098      0.052475
H      6.84301      2.60195      7.88486        -0.000121      0.032918     -0.119304
H      0.71190      2.90774     10.46577         0.038091      0.048952      0.022532
H      6.51550      2.67300     11.46985         0.039893      0.031867     -0.035020
H      4.99904      1.80494     11.43881        -0.024151     -0.040492      0.004738
C      5.83606      1.36841      2.42022        -0.036718      0.035260     -0.121761
C      5.83606      2.14759      9.59922        -0.036718     -0.035260     -0.121761
N      1.59549      3.47326      5.43472        -0.017903     -0.013034      0.057876
N      1.42464      3.14127      6.77755         0.101101     -0.069256      0.079159
N      2.70919      3.01900      4.80759         0.067985     -0.096377      0.066429
N      4.73574      1.81784      1.77507        -0.012301     -0.073345      0.078574
N      6.88659      0.95488      1.72103        -0.039043     -0.016931      0.095030
N      5.80440      1.33687      3.75337         0.037622      0.030173      0.087175
N      1.59549      0.04274     12.61372        -0.017903      0.013034      0.057876
N      1.42464      0.37473     13.95655         0.101101      0.069256      0.079159
N      2.70919      0.49700     11.98659         0.067985      0.096377      0.066429
N      4.73574      1.69816      8.95407        -0.012301      0.073345      0.078574
N      6.88659      2.56112      8.90003        -0.039043      0.016931      0.095030
N      5.80440      2.17913     10.93237         0.037622     -0.030173      0.087175
O      2.24717      2.56353      7.50263        -0.051278      0.025679     -0.102803
O      0.29762      0.00008      7.18064        -0.030599      0.024949     -0.042687
O      3.63772      2.36032      5.33691        -0.079831      0.049252     -0.012987
O      2.71914      3.31773      3.58501         0.008535      0.032163     -0.080220
O      4.87306      2.15080      0.43072        -0.106351     -0.058836     -0.061753
O      2.24717      0.95247      0.32363        -0.051278     -0.025679     -0.102803
O      0.29762     -0.00008      0.00164        -0.030599     -0.024949     -0.042687
O      3.63772      1.15568     12.51591        -0.079831     -0.049252     -0.012987
O      2.71914      0.19827     10.76401         0.008535     -0.032163     -0.080220
O      4.87306      1.36520      7.60972        -0.106351      0.058836     -0.061753
