16
# total energy = -97.33747770 eVH      1.45243      4.28343      1.40011        -0.028704     -0.028704     -0.073470
H      0.79534      3.62634     -0.10089         0.024606      0.024606     -0.000052
H      4.20957      1.37857      1.40011         0.028704      0.028704     -0.073470
H      4.86666      2.03566     -0.10089        -0.024606     -0.024606     -0.000052
H      4.28343      4.20957      3.31589        -0.028704      0.028704      0.073470
H      3.62634      4.86666      0.10089         0.024606     -0.024606      0.000052
H      1.37857      1.45243      3.31589         0.028704     -0.028704      0.073470
H      2.03566      0.79534      0.10089        -0.024606      0.024606      0.000052
C     -0.00000      2.83100      1.62569        -0.000000     -0.000000      0.041622
C      2.83100      0.00000      3.09031        -0.000000     -0.000000     -0.041622
N      0.81480      3.64580      0.91855         0.001073      0.001073      0.003715
N      4.84720      2.01620      0.91855        -0.001073     -0.001073      0.003715
N      3.64580      4.84720      3.79745         0.001073     -0.001073     -0.003715
N      2.01620      0.81480      3.79745        -0.001073      0.001073     -0.003715
O     -0.00000      2.83100      2.90210        -0.000000     -0.000000     -0.091379
O      2.83100      0.00000      1.81390        -0.000000     -0.000000      0.091379
