16
# total energy = -102.73566336 eVC      2.51021      1.00958      1.85852        -0.292456     -0.217888      0.770749
C      2.82577      5.53958      1.19059         0.292456     -0.217888     -0.770749
C      1.04711      8.05042      4.84089         0.292456      0.217888     -0.770749
C      0.73155      3.52042      5.50882        -0.292456      0.217888      0.770749
N      0.03378      0.61879      0.01627        -0.660586      0.390850      0.349424
N     -0.28447      1.80918      0.62614         0.034408     -0.200205      0.643827
N      1.74488      5.14879      3.33343         0.660586      0.390850     -0.349424
N      2.06313      6.33918      2.72356        -0.034408     -0.200205     -0.643827
N     -0.03378      8.44121     -0.01627         0.660586     -0.390850     -0.349424
N      0.28447      7.25082      6.37386        -0.034408      0.200205     -0.643827
N      1.81244      3.91121      3.36598        -0.660586     -0.390850      0.349424
N      1.49419      2.72082      3.97584         0.034408      0.200205      0.643827
O      2.78561      1.91705      1.46911         0.110626      1.079080     -0.545793
O      2.55038      6.44705      1.58000        -0.110626      1.079080      0.545793
O      0.77172      7.14295      5.23030        -0.110626     -1.079080      0.545793
O      1.00694      2.61295      5.11940         0.110626     -1.079080     -0.545793
