36
# total energy = -220.75594424 eVH      0.72688      2.40148      2.50110         0.126374      0.155768     -0.223976
H      0.42812      3.58191      1.32759         0.416203      0.390441     -0.232203
H      4.59215      7.65448      1.12626         0.126374      0.155768     -0.223976
H      4.29339      8.83491     -0.04726         0.416203      0.390441     -0.232203
H      7.00366      2.40148     -1.10478        -0.126374      0.155768      0.223976
H      7.30242      3.58191      0.06873        -0.416203      0.390441      0.232203
H      3.13839      7.65448      0.27006        -0.126374      0.155768      0.223976
H      3.43715      8.83491      1.44357        -0.416203      0.390441      0.232203
H      7.00366      8.10452     -1.10478        -0.126374     -0.155768      0.223976
H      7.30242      6.92409      0.06873        -0.416203     -0.390441      0.232203
H      3.13839      2.85152      0.27006        -0.126374     -0.155768      0.223976
H      3.43715      1.67109      1.44357        -0.416203     -0.390441      0.232203
H      0.72688      8.10452      2.50110         0.126374     -0.155768     -0.223976
H      0.42812      6.92409      1.32759         0.416203     -0.390441     -0.232203
H      4.59215      2.85152      1.12626         0.126374     -0.155768     -0.223976
H      4.29339      1.67109     -0.04726         0.416203     -0.390441     -0.232203
C      2.16122      5.25300     -0.19770        -0.392140     -0.000000      0.291736
C      3.35241      5.25300     -1.03279         1.248412     -0.000000     -0.836614
C      6.02649      0.00000     -1.57255        -0.392140     -0.000000      0.291736
C      7.21768      0.00000     -2.40763         1.248412     -0.000000     -0.836614
C      5.56932      5.25300      1.59402         0.392140     -0.000000     -0.291736
C      4.37814      5.25300      2.42911        -1.248412     -0.000000      0.836614
C      1.70405      0.00000      2.96886         0.392140     -0.000000     -0.291736
C      0.51286      0.00000      3.80395        -1.248412     -0.000000      0.836614
N     -0.00000      3.01813      2.07300        -0.000000     -1.132944      0.000000
N      3.86527      8.27113      0.69816        -0.000000     -1.132944      0.000000
N     -0.00000      7.48787      2.07300        -0.000000      1.132944      0.000000
N      3.86527      2.23487      0.69816        -0.000000      1.132944      0.000000
O      1.69729      6.39410      0.13225         0.183648     -0.246636     -0.102224
O      5.56256      1.14110     -1.24259         0.183648     -0.246636     -0.102224
O      6.03325      6.39410      1.26407        -0.183648     -0.246636      0.102224
O      2.16798      1.14110      2.63891        -0.183648     -0.246636      0.102224
O      6.03325      4.11190      1.26407        -0.183648      0.246636      0.102224
O      2.16798      9.36490      2.63891        -0.183648      0.246636      0.102224
O      1.69729      4.11190      0.13225         0.183648      0.246636     -0.102224
O      5.56256      9.36490     -1.24259         0.183648      0.246636     -0.102224
