12
# total energy = -76.48949431 eVC      2.36985      1.30750      0.87493        -0.011135     -0.000000      0.026778
C      3.04015      3.92250      2.65993         0.011135     -0.000000      0.026778
C      8.45015      3.92250      2.69507         0.011135      0.000000     -0.026778
C      7.77985      1.30750      0.91007        -0.011135      0.000000     -0.026778
N     -1.11438      1.30750     -0.12587         0.011210     -0.000000      0.051492
N      6.52438      3.92250      1.65913        -0.011210     -0.000000      0.051492
N      1.11438      3.92250      0.12587        -0.011210     -0.000000     -0.051492
N      4.29562      1.30750      1.91087         0.011210     -0.000000     -0.051492
O      3.24209      1.30750      1.38591        -0.030476     -0.000000      0.031399
O      2.16791      3.92250      3.17091         0.030476      0.000000      0.031399
O      7.57791      3.92250      2.18409         0.030476     -0.000000     -0.031399
O      8.65209      1.30750      0.39909        -0.030476     -0.000000     -0.031399
