38
# total energy = -216.50367643 eVH      3.53771      1.48836      1.97854        -0.008873      0.294588      1.458675
H      3.87861      2.85139      1.19067         0.701102      0.907781     -1.665593
H      2.75450      3.03244      2.31430        -0.828770      1.564702      2.625989
H      2.31869      2.00109      1.08203         0.890485      1.121125     -0.252051
H      3.28431     10.17287     -0.05050        -0.613698     -0.251957     -1.254857
H      4.47929      8.82064      1.97854         0.008873     -0.294588      1.458675
H      4.13839      7.45761      1.19067        -0.701102     -0.907781     -1.665593
H      5.26250      7.27656      2.31430         0.828770     -1.564702      2.625989
H      5.69831      8.30791      1.08203        -0.890485     -1.121125     -0.252051
H      4.73269      0.13613     -0.05050         0.613698      0.251957     -1.254857
H      0.47079      6.64286      1.75646         0.008873      0.294588     -1.458675
H      0.12989      8.00589      2.54433        -0.701102      0.907781      1.665593
H      1.25400      8.18694      1.42070         0.828770      1.564702     -2.625989
H      1.68981      7.15559      2.65297        -0.890485      1.121125      0.252051
H      0.72419      5.01837      0.05050         0.613698     -0.251957      1.254857
H      7.54621      3.66614      1.75646        -0.008873     -0.294588     -1.458675
H      7.88711      2.30311      2.54433         0.701102     -0.907781      1.665593
H      6.76300      2.12206      1.42070        -0.828770     -1.564702     -2.625989
H      6.32719      3.15341      2.65297         0.890485     -1.121125      0.252051
H      7.29281      5.29063      0.05050        -0.613698      0.251957      1.254857
C      0.73876      0.23963      0.25754         0.811957     -0.522997      0.117891
C      7.27824     10.06937      0.25754        -0.811957      0.522997      0.117891
C      3.26974      5.39413      3.47746        -0.811957     -0.522997     -0.117891
C      4.74726      4.91487      3.47746         0.811957      0.522997     -0.117891
N      3.13271      2.39898      1.67791        -0.891710     -4.044874     -2.331525
N      4.88429      7.91002      1.67791         0.891710      4.044874     -2.331525
N      0.87579      7.55348      2.05709         0.891710     -4.044874      2.331525
N      7.14121      2.75552      2.05709        -0.891710      4.044874      2.331525
O      1.63530      9.67598      0.52823        -0.322913      0.607722     -0.034491
O      0.95847      1.45889      0.00323         0.210212      0.232850      0.059119
O      6.38170      0.63302      0.52823         0.322913     -0.607722     -0.034491
O      7.05853      8.85011      0.00323        -0.210212     -0.232850      0.059119
O      2.37320      4.52148      3.20677         0.322913      0.607722      0.034491
O      3.05003      6.61339     -0.00323        -0.210212      0.232850     -0.059119
O      5.64380      5.78752      3.20677        -0.322913     -0.607722      0.034491
O      4.96697      3.69561     -0.00323         0.210212     -0.232850     -0.059119
O      4.00850      0.00000      2.98768        -0.000000     -0.000000      2.065331
O     -0.00000      5.15450      0.74732        -0.000000     -0.000000     -2.065331
