16
# total energy = -78.61332770 eVC      2.86232      0.73889      1.24841         1.808237     -6.717264     -2.406772
C      2.47367      5.26889      1.80070        -1.808237     -6.717264      2.406772
C      0.69501      8.32111      5.45100        -1.808237      6.717264      2.406772
C      1.08365      3.79111      4.89871         1.808237      6.717264     -2.406772
N     -0.22575      0.79745      0.15244         1.892237     -9.914647     -2.480954
N      3.55278      1.98436      0.05936         0.112264      5.355614      1.140983
N      2.00441      5.32745      3.19726        -1.892237     -9.914647      2.480954
N      1.78320      6.51436      2.98975        -0.112264      5.355614     -1.140983
N      0.22575      8.26255     -0.15244        -1.892237      9.914647      2.480954
N      0.00454      7.07564      6.64005        -0.112264     -5.355614     -1.140983
N      1.55291      3.73255      3.50214         1.892237      9.914647     -2.480954
N      1.77412      2.54564      3.70965         0.112264     -5.355614      1.140983
O      2.50831      1.35196      1.86394        -1.957822      6.949968      3.232606
O      2.82767      5.88196      1.18517         1.957822      6.949968     -3.232606
O      1.04901      7.70804      4.83547         1.957822     -6.949968     -3.232606
O      0.72965      3.17804      5.51423        -1.957822     -6.949968      3.232606
