40
# total energy = -53.43256418 eVH      6.15606      1.24244      6.07971         0.447454      1.207501      0.709067
H      4.83151      2.98004      4.84233         3.263366      1.320792      0.338069
H      5.80548      4.17806      3.90989         1.120025     -0.027502     -0.641783
H      5.88686      4.51432      5.87052         0.458828     -2.818420     -2.754565
H      5.90940      1.31338      3.69277         2.821732      1.423480      2.475679
H      4.38714      4.24896      1.72701        -0.447454     -1.207501      0.709067
H      5.71169      2.51136      0.48963        -3.263366     -1.320792      0.338069
H      4.73772      1.31334      8.26259        -1.120025      0.027502     -0.641783
H      4.65634      0.97708      1.51782        -0.458828      2.818420     -2.754565
H      4.63380      4.17802      8.04547        -2.821732     -1.423480      2.475679
H      2.64166      4.24896      1.72701         0.447454     -1.207501      0.709067
H      1.31711      2.51136      0.48963         3.263366     -1.320792      0.338069
H      2.29108      1.31334      8.26259         1.120025      0.027502     -0.641783
H      2.37246      0.97708      1.51782         0.458828      2.818420     -2.754565
H      2.39500      4.17802      8.04547         2.821732     -1.423480      2.475679
H      0.87274      1.24244      6.07971        -0.447454      1.207501      0.709067
H      2.19729      2.98004      4.84233        -3.263366      1.320792      0.338069
H      1.22332      4.17806      3.90989        -1.120025     -0.027502     -0.641783
H      1.14194      4.51432      5.87052        -0.458828     -2.818420     -2.754565
H      1.11940      1.31338      3.69277        -2.821732      1.423480      2.475679
H     -0.00000      2.57962      7.06541         0.000000      0.639213      0.477395
H     -0.00000      3.10199      2.39847         0.000000     -1.429293      1.038269
H      3.51440      2.91178      2.71271         0.000000     -0.639213      0.477395
H      3.51440      2.38941      6.75117         0.000000      1.429293      1.038269
C      5.96857      3.60250      4.80905       -10.849252      5.124863      3.742663
C      4.57463      1.88890      0.45635        10.849252     -5.124863      3.742663
C      2.45417      1.88890      0.45635       -10.849252     -5.124863      3.742663
C      1.06023      3.60250      4.80905        10.849252      5.124863      3.742663
C     -0.00000      4.81875      1.14305         0.000000     -5.014770   -428.939754
C     -0.00000      1.97218      6.15062         0.000000     -3.868819      3.478321
C     -0.00000      1.78794      4.41939         0.000000    -19.719310    -18.792156
C      3.51440      0.67265      5.49575         0.000000      5.014770   -428.939754
C      3.51440      3.51922      1.79792         0.000000      3.868819      3.478321
C      3.51440      3.70346      0.06669         0.000000     19.719310    -18.792156
N     -0.00000      4.82706      1.77080         0.000000      6.004630    425.313652
N     -0.00000      2.81603      4.97411         0.000000     11.301699      7.023385
N      3.51440      0.66434      6.12350         0.000000     -6.004630    425.313652
N      3.51440      2.67537      0.62141         0.000000    -11.301699      7.023385
O     -0.00000      4.79758      7.66005         0.000000     -0.296598      2.662630
O      3.51440      0.69382      3.30735         0.000000      0.296598      2.662630
