36
# total energy = -216.69245479 eVH      4.02550      2.35712      2.27857        -0.017518      0.040011      0.029057
H      4.21494      1.55653     -0.04466         0.093771      0.112833      0.064782
H      6.86122      0.94442      0.70506        -0.022535     -0.046507      0.114947
H      0.71199      0.61270      3.29901        -0.087551      0.010784     -0.041282
H      6.50848      0.83998      4.27412         0.071352     -0.053748      0.110672
H      4.97739      1.69666      4.25478         0.006598      0.041403      0.071434
H      4.02550      1.15888      9.45757        -0.017518     -0.040011      0.029057
H      4.21494      1.95947      7.13434         0.093771     -0.112833      0.064782
H      6.86122      2.57158      7.88406        -0.022535      0.046507      0.114947
H      0.71199      2.90330     10.47801        -0.087551     -0.010784     -0.041282
H      6.50848      2.67602     11.45312         0.071352      0.053748      0.110672
H      4.97739      1.81934     11.43378         0.006598     -0.041403      0.071434
C      5.82992      1.37673      2.41947         0.160712     -0.098720     -0.126144
C      5.82992      2.13927      9.59847         0.160712      0.098720     -0.126144
N      1.59435      3.45871      5.44046         0.022626      0.041623     -0.134387
N      1.43093      3.14147      6.78359        -0.106592      0.017822      0.046910
N      2.71294      3.01777      4.81124         0.060943     -0.045146      0.101282
N      4.73070      1.81316      1.77029        -0.063323      0.015315     -0.118485
N      6.88915      0.96693      1.72679        -0.002608     -0.021224     -0.027833
N      5.79352      1.34074      3.75328         0.025844      0.048820     -0.110000
N      1.59435      0.05729     12.61946         0.022626     -0.041623     -0.134387
N      1.43093      0.37453     13.96259        -0.106592     -0.017822      0.046910
N      2.71294      0.49823     11.99024         0.060943      0.045146      0.101282
N      4.73070      1.70284      8.94929        -0.063323     -0.015315     -0.118485
N      6.88915      2.54907      8.90579        -0.002608      0.021224     -0.027833
N      5.79352      2.17526     10.93228         0.025844     -0.048820     -0.110000
O      2.25523      2.57746      7.51371         0.015527     -0.036326     -0.031820
O      0.29912      0.00057      7.17906         0.050680     -0.026989      0.022129
O      3.65126      2.37803      5.34751        -0.098788      0.021019     -0.087778
O      2.71943      3.31264      3.58629         0.003178     -0.005825      0.027616
O      4.87097      2.14050      0.42003        -0.112317     -0.085784      0.088898
O      2.25523      0.93854      0.33471         0.015527      0.036326     -0.031820
O      0.29912     -0.00057      0.00006         0.050680      0.026989      0.022129
O      3.65126      1.13797     12.52651        -0.098788     -0.021019     -0.087778
O      2.71943      0.20336     10.76529         0.003178      0.005825      0.027616
O      4.87097      1.37550      7.59903        -0.112317      0.085784      0.088898
