12
# total energy = -70.75164899 eVC      2.47106      1.30750      0.97390       -14.872892     -0.000000     -4.225449
C      2.93894      3.92250      2.75890        14.872892      0.000000     -4.225449
C      8.34894      3.92250      2.59610        14.872892      0.000000      4.225449
C      7.88106      1.30750      0.81110       -14.872892      0.000000      4.225449
N     -1.21934      1.30750     -0.22765        -3.499363      0.000000      3.827463
N      6.62934      3.92250      1.55735         3.499363     -0.000000      3.827463
N      1.21934      3.92250      0.22765         3.499363      0.000000     -3.827463
N      4.19066      1.30750      2.01265        -3.499363     -0.000000     -3.827463
O      3.27582      1.30750      1.17983        18.380416      0.000000      8.053190
O      2.13418      3.92250      2.96483       -18.380416      0.000000      8.053190
O      7.54418      3.92250      2.39017       -18.380416     -0.000000     -8.053190
O      8.68582      1.30750      0.60517        18.380416     -0.000000     -8.053190
