12
# total energy = -64.09835210 eVC      2.38680      1.30750      0.95063       -10.612049     -0.000000     -2.913594
C      3.02320      3.92250      2.73563        10.612049     -0.000000     -2.913594
C      8.43320      3.92250      2.61937        10.612049     -0.000000      2.913594
C      7.79680      1.30750      0.83437       -10.612049     -0.000000      2.913594
N     -0.92697      1.30750     -0.13919       -10.543465      0.000000      6.309140
N      6.33697      3.92250      1.64581        10.543465      0.000000      6.309140
N      0.92697      3.92250      0.13919        10.543465      0.000000     -6.309140
N      4.48303      1.30750      1.92419       -10.543465     -0.000000     -6.309140
O      3.22193      1.30750      1.18542        21.234736     -0.000000      9.220505
O      2.18807      3.92250      2.97042       -21.234736     -0.000000      9.220505
O      7.59807      3.92250      2.38458       -21.234736     -0.000000     -9.220505
O      8.63193      1.30750      0.59958        21.234736      0.000000     -9.220505
