16
# total energy = -86.58086127 eVC      2.77996      0.54102      1.39400        -0.892348      1.071993      1.669384
C      2.55602      5.07102      1.65511         0.892348      1.071993     -1.669384
C      0.77736      8.51898      5.30541         0.892348     -1.071993     -1.669384
C      1.00130      3.98898      5.04429        -0.892348     -1.071993      1.669384
N     -0.17235      0.60176      0.15666         0.887909      4.552618      0.293652
N      0.03242      1.92061      0.23660        -0.762732     -0.821871      0.206613
N      1.95101      5.13176      3.19304        -0.887909      4.552618     -0.293652
N      1.74624      6.45061      3.11310         0.762732     -0.821871     -0.206613
N      0.17235      8.45824     -0.15666        -0.887909     -4.552618     -0.293652
N     -0.03242      7.13939      6.76340         0.762732      0.821871     -0.206613
N      1.60631      3.92824      3.50636         0.887909     -4.552618      0.293652
N      1.81108      2.60939      3.58631        -0.762732      0.821871      0.206613
O      2.50665      1.57334      1.88251         0.686153      0.254020     -1.386863
O      2.82934      6.10334      1.16660        -0.686153      0.254020      1.386863
O      1.05067      7.48666      4.81689        -0.686153     -0.254020      1.386863
O      0.72799      2.95666      5.53281         0.686153     -0.254020     -1.386863
