40
# total energy = -224.79145964 eVH      6.12559      1.31953      6.12915         0.007298      0.038132      0.023946
H      4.92895      3.04482      4.95233        -0.045044     -0.033873      0.020768
H      5.82980      4.24829      3.96287        -0.017903      0.046710      0.051099
H      5.81906      4.36988      5.76896         0.070173     -0.088872      0.013472
H      6.13449      1.32761      3.68222        -0.063826     -0.004902      0.092061
H      4.41761      4.17187      1.77645        -0.007298     -0.038132      0.023946
H      5.61425      2.44658      0.59963         0.045044      0.033873      0.020768
H      4.71340      1.24311      8.31557         0.017903     -0.046710      0.051099
H      4.72414      1.12152      1.41626        -0.070173      0.088872      0.013472
H      4.40871      4.16379      8.03492         0.063826      0.004902      0.092061
H      2.61119      4.17187      1.77645         0.007298     -0.038132      0.023946
H      1.41455      2.44658      0.59963        -0.045044      0.033873      0.020768
H      2.31540      1.24311      8.31557        -0.017903     -0.046710      0.051099
H      2.30466      1.12152      1.41626         0.070173      0.088872      0.013472
H      2.62009      4.16379      8.03492        -0.063826      0.004902      0.092061
H      0.90321      1.31953      6.12915        -0.007298      0.038132      0.023946
H      2.09985      3.04482      4.95233         0.045044     -0.033873      0.020768
H      1.19900      4.24829      3.96287         0.017903      0.046710      0.051099
H      1.20974      4.36988      5.76896        -0.070173     -0.088872      0.013472
H      0.89431      1.32761      3.68222         0.063826     -0.004902      0.092061
H     -0.00000      2.58543      7.03907         0.000000      0.013914     -0.095213
H     -0.00000      2.62898      2.82925         0.000000      0.043897     -0.003345
H      3.51440      2.90597      2.68637         0.000000     -0.013914     -0.095213
H      3.51440      2.86242      7.18195         0.000000     -0.043897     -0.003345
C      5.80981      3.69182      4.90824        -0.033506      0.002923     -0.102671
C      4.73339      1.79958      0.55554         0.033506     -0.002923     -0.102671
C      2.29541      1.79958      0.55554        -0.033506     -0.002923     -0.102671
C      1.21899      3.69182      4.90824         0.033506      0.002923     -0.102671
C     -0.00000      4.79520      0.62107         0.000000      0.011662      0.024970
C     -0.00000      1.94197      6.14948         0.000000      0.038657      0.032643
C     -0.00000      1.95603      3.69498         0.000000      0.065014     -0.064131
C      3.51440      0.69620      4.97377         0.000000     -0.011662      0.024970
C      3.51440      3.54943      1.79678         0.000000     -0.038657      0.032643
C      3.51440      3.53537     -0.65772         0.000000     -0.065014     -0.064131
N     -0.00000      4.79513      1.82293         0.000000     -0.063218     -0.042529
N     -0.00000      2.81758      4.93048         0.000000     -0.065770     -0.012515
N      3.51440      0.69627      6.17563         0.000000      0.063218     -0.042529
N      3.51440      2.67382      0.57778         0.000000      0.065770     -0.012515
O     -0.00000      4.79072      8.09569         0.000000     -0.023472     -0.037227
O      3.51440      0.70068      3.74299         0.000000      0.023472     -0.037227
