16
# total energy = -97.34248387 eVH      1.44498      4.27598      1.38808         0.058898      0.058898     -0.054806
H      0.79786      3.62886     -0.12095         0.013807      0.013807     -0.010592
H      4.21702      1.38602      1.38808        -0.058898     -0.058898     -0.054806
H      4.86414      2.03314     -0.12095        -0.013807     -0.013807     -0.010592
H      4.27598      4.21702      3.32792         0.058898     -0.058898      0.054806
H      3.62886      4.86414      0.12095         0.013807     -0.013807      0.010592
H      1.38602      1.44498      3.32792        -0.058898      0.058898      0.054806
H      2.03314      0.79786      0.12095        -0.013807      0.013807      0.010592
C     -0.00000      2.83100      1.60682        -0.000000      0.000000     -0.065209
C      2.83100      0.00000      3.10918        -0.000000      0.000000      0.065209
N      0.81300      3.64400      0.89808         0.027757      0.027757      0.018412
N      4.84900      2.01800      0.89808        -0.027757     -0.027757      0.018412
N      3.64400      4.84900      3.81792         0.027757     -0.027757     -0.018412
N      2.01800      0.81300      3.81792        -0.027757      0.027757     -0.018412
O     -0.00000      2.83100      2.88069        -0.000000      0.000000      0.015670
O      2.83100      0.00000      1.83531        -0.000000      0.000000     -0.015670
