36
# total energy = -216.64198727 eVH      4.02969      2.38141      2.27275         0.098301     -0.159909     -0.043405
H      4.22334      1.53552     -0.06135        -0.117811     -0.035179     -0.053198
H      6.89871      0.99156      0.70634        -0.033550     -0.124415      0.100405
H      0.69518      0.61259      3.32879        -0.125316      0.076165     -0.156183
H      6.48583      0.83202      4.25926         0.273490     -0.141543      0.141493
H      4.97147      1.66704      4.24539        -0.220955      0.151141      0.110244
H      4.02969      1.13459      9.45175         0.098301      0.159909     -0.043405
H      4.22334      1.98048      7.11765        -0.117811      0.035179     -0.053198
H      6.89871      2.52444      7.88534        -0.033550      0.124415      0.100405
H      0.69518      2.90341     10.50779        -0.125316     -0.076165     -0.156183
H      6.48583      2.68398     11.43826         0.273490      0.141543      0.141493
H      4.97147      1.84896     11.42439        -0.220955     -0.151141      0.110244
C      5.81799      1.37505      2.39958         0.072955      0.035306      0.415486
C      5.81799      2.14095      9.57858         0.072955     -0.035306      0.415486
N      1.58373      3.44015      5.43655         0.085607      0.013450     -0.031737
N      1.43128      3.14421      6.79054         0.121283     -0.056488     -0.022792
N      2.72187      3.01479      4.82072        -0.137351      0.057657      0.073589
N      4.69688      1.78343      1.75920         0.061031      0.110846      0.161386
N      6.89344      0.98556      1.72834         0.024940     -0.078555     -0.114192
N      5.79922      1.36461      3.74041        -0.034438      0.008326     -0.363830
N      1.58373      0.07585     12.61555         0.085607     -0.013450     -0.031737
N      1.43128      0.37179     13.96954         0.121283      0.056488     -0.022792
N      2.72187      0.50121     11.99972        -0.137351     -0.057657      0.073589
N      4.69688      1.73257      8.93820         0.061031     -0.110846      0.161386
N      6.89344      2.53044      8.90734         0.024940      0.078555     -0.114192
N      5.79922      2.15139     10.91941        -0.034438     -0.008326     -0.363830
O      2.27333      2.59674      7.51509        -0.091689     -0.012161     -0.027767
O      0.30462     -0.00440      7.19750        -0.059594      0.028962     -0.035928
O      3.67001      2.40453      5.36557        -0.009615     -0.074967     -0.037899
O      2.72948      3.29689      3.59381        -0.026581      0.037635     -0.042929
O      4.85098      2.12516      0.42010         0.119292      0.138943     -0.072743
O      2.27333      0.91926      0.33609        -0.091689      0.012161     -0.027767
O      0.30462      0.00440      0.01850        -0.059594     -0.028962     -0.035928
O      3.67001      1.11147     12.54457        -0.009615      0.074967     -0.037899
O      2.72948      0.21911     10.77281        -0.026581     -0.037635     -0.042929
O      4.85098      1.39084      7.59910         0.119292     -0.138943     -0.072743
