18
# total energy = -101.79040936 eVH      0.63704      4.22865      9.03474         0.016845     -0.018102     -0.012247
H      0.57064      1.23078      0.19528        -0.004123      0.031123      0.021676
H      3.24636      0.49946      8.15384         0.054331     -0.031926      0.017463
H      3.17528      0.16137      0.72058        -0.010305      0.035910      0.006035
H      1.87486      2.56152      6.98556        -0.008113      0.025041      0.021203
H      0.63704      0.45035      4.47874         0.016845      0.018102     -0.012247
H      0.57064      3.44822      4.75128        -0.004123     -0.031123      0.021676
H      3.24636      4.17954      3.59784         0.054331      0.031926      0.017463
H      3.17528      4.51763      5.27658        -0.010305     -0.035910      0.006035
H      1.87486      2.11748      2.42956        -0.008113     -0.025041      0.021203
C      1.90207      1.73078      6.24525        -0.047921      0.088001     -0.085320
C      1.90207      2.94822      1.68925        -0.047921     -0.088001     -0.085320
N      0.00092      0.37166     -0.00447        -0.045596      0.051422     -0.066372
N      0.00092      4.30734      4.55153        -0.045596     -0.051422     -0.066372
O      1.50055      1.97791      5.06633        -0.064481      0.054648      0.010358
O      2.33481      0.60811      6.65104         0.109364     -0.086637      0.087205
O      1.50055      2.70109      0.51033        -0.064481     -0.054648      0.010358
O      2.33481      4.07089      2.09504         0.109364      0.086637      0.087205
