38
# total energy = -218.64539103 eVH      3.52597      1.49940      2.11505         0.037009     -0.111516      0.065317
H      3.83953      2.83779      1.06652         0.138240     -0.028814     -0.116869
H      2.78249      3.01336      2.36386        -0.005354      0.178554      0.017390
H      2.34690      2.05899      1.01749        -0.053933     -0.073596      0.036113
H      3.21528     10.12862     -0.10782        -0.054399     -0.080185     -0.002109
H      4.49103      8.80960      2.11505        -0.037009      0.111516      0.065317
H      4.17747      7.47121      1.06652        -0.138240      0.028814     -0.116869
H      5.23451      7.29564      2.36386         0.005354     -0.178554      0.017390
H      5.67010      8.25001      1.01749         0.053933      0.073596      0.036113
H      4.80172      0.18038     -0.10782         0.054399      0.080185     -0.002109
H      0.48253      6.65390      1.61995        -0.037009     -0.111516     -0.065317
H      0.16897      7.99229      2.66848        -0.138240     -0.028814      0.116869
H      1.22601      8.16786      1.37114         0.005354      0.178554     -0.017390
H      1.66160      7.21349      2.71751         0.053933     -0.073596     -0.036113
H      0.79322      4.97412      0.10782         0.054399     -0.080185      0.002109
H      7.53447      3.65510      1.61995         0.037009      0.111516     -0.065317
H      7.84803      2.31671      2.66848         0.138240      0.028814      0.116869
H      6.79099      2.14114      1.37114        -0.005354     -0.178554     -0.017390
H      6.35540      3.09551      2.71751        -0.053933      0.073596     -0.036113
H      7.22378      5.33488      0.10782        -0.054399      0.080185      0.002109
C      0.74954      0.24258      0.26087        -0.018059     -0.020258     -0.047848
C      7.26746     10.06642      0.26087         0.018059      0.020258     -0.047848
C      3.25896      5.39708      3.47413         0.018059     -0.020258      0.047848
C      4.75804      4.91192      3.47413        -0.018059      0.020258      0.047848
N      3.12887      2.34196      1.64753        -0.112665     -0.066055     -0.124659
N      4.88813      7.96704      1.64753         0.112665      0.066055     -0.124659
N      0.87963      7.49646      2.08747         0.112665     -0.066055      0.124659
N      7.13737      2.81254      2.08747        -0.112665      0.066055      0.124659
O      1.64093      9.69080      0.52873        -0.000127      0.046620     -0.019525
O      0.96251      1.46517     -0.00867        -0.003253     -0.014718      0.011274
O      6.37607      0.61820      0.52873         0.000127     -0.046620     -0.019525
O      7.05449      8.84383     -0.00867         0.003253      0.014718      0.011274
O      2.36757      4.53630      3.20627         0.000127      0.046620      0.019525
O      3.04599      6.61967      0.00867         0.003253     -0.014718     -0.011274
O      5.64943      5.77270      3.20627        -0.000127     -0.046620      0.019525
O      4.97101      3.68933      0.00867        -0.003253      0.014718     -0.011274
O      4.00850      0.00000      3.05055         0.000000      0.000000     -0.069309
O     -0.00000      5.15450      0.68445         0.000000      0.000000      0.069309
