36
# total energy = -220.88913136 eVH      0.74748      2.40190      2.48626        -0.041390      0.017513     -0.029007
H      0.45021      3.58864      1.33541        -0.007752     -0.023304      0.017845
H      4.61275      7.65490      1.11141        -0.041390      0.017513     -0.029007
H      4.31548      8.84164     -0.03943        -0.007752     -0.023304      0.017845
H      6.98306      2.40190     -1.08994         0.041390      0.017513      0.029007
H      7.28034      3.58864      0.06091         0.007752     -0.023304     -0.017845
H      3.11779      7.65490      0.28490         0.041390      0.017513      0.029007
H      3.41506      8.84164      1.43575         0.007752     -0.023304     -0.017845
H      6.98306      8.10410     -1.08994         0.041390     -0.017513      0.029007
H      7.28034      6.91736      0.06091         0.007752      0.023304     -0.017845
H      3.11779      2.85110      0.28490         0.041390     -0.017513      0.029007
H      3.41506      1.66436      1.43575         0.007752      0.023304     -0.017845
H      0.74748      8.10410      2.48626        -0.041390     -0.017513     -0.029007
H      0.45021      6.91736      1.33541        -0.007752      0.023304      0.017845
H      4.61275      2.85110      1.11141        -0.041390     -0.017513     -0.029007
H      4.31548      1.66436     -0.03943        -0.007752      0.023304      0.017845
C      2.16193      5.25300     -0.19593         0.002492      0.000000      0.022129
C      3.35892      5.25300     -1.03686        -0.031658      0.000000      0.019973
C      6.02720      0.00000     -1.57077         0.002492     -0.000000      0.022129
C      7.22419      0.00000     -2.41170        -0.031658      0.000000      0.019973
C      5.56861      5.25300      1.59224        -0.002492     -0.000000     -0.022129
C      4.37162      5.25300      2.43318         0.031658      0.000000     -0.019973
C      1.70334      0.00000      2.96709        -0.002492      0.000000     -0.022129
C      0.50635      0.00000      3.80802         0.031658     -0.000000     -0.019973
N     -0.00000      3.00064      2.07300        -0.000000     -0.026136     -0.000000
N      3.86527      8.25364      0.69816        -0.000000     -0.026136     -0.000000
N     -0.00000      7.50536      2.07300        -0.000000      0.026136     -0.000000
N      3.86527      2.25236      0.69816        -0.000000      0.026136     -0.000000
O      1.70266      6.39074      0.13120         0.030549      0.016673      0.025154
O      5.56793      1.13774     -1.24364         0.030549      0.016673      0.025154
O      6.02788      6.39074      1.26511        -0.030549      0.016673     -0.025154
O      2.16261      1.13774      2.63995        -0.030549      0.016673     -0.025154
O      6.02788      4.11526      1.26511        -0.030549     -0.016673     -0.025154
O      2.16261      9.36826      2.63995        -0.030549     -0.016673     -0.025154
O      1.70266      4.11526      0.13120         0.030549     -0.016673      0.025154
O      5.56793      9.36826     -1.24364         0.030549     -0.016673      0.025154
