12
# total energy = -75.00000154 eVC      2.40133      1.30750      0.95475        -0.470651     -0.000000     -0.671413
C      3.00867      3.92250      2.73975         0.470651      0.000000     -0.671413
C      8.41867      3.92250      2.61525         0.470651      0.000000      0.671413
C      7.81133      1.30750      0.83025        -0.470651      0.000000      0.671413
N     -1.24107      1.30750     -0.21157         5.952138      0.000000     -4.941039
N      6.65107      3.92250      1.57343        -5.952138     -0.000000     -4.941039
N      1.24107      3.92250      0.21157        -5.952138     -0.000000      4.941039
N      4.16893      1.30750      1.99657         5.952138      0.000000      4.941039
O      3.36477      1.30750      1.21685        -5.562323      0.000000     -4.265595
O      2.04523      3.92250      3.00185         5.562323     -0.000000     -4.265595
O      7.45523      3.92250      2.35315         5.562323     -0.000000      4.265595
O      8.77477      1.30750      0.56815        -5.562323      0.000000      4.265595
