12
# total energy = -75.92368314 eVC      2.37390      1.30750      0.93851         0.185681      0.000000     -0.321574
C      3.03610      3.92250      2.72351        -0.185681      0.000000     -0.321574
C      8.44610      3.92250      2.63149        -0.185681      0.000000      0.321574
C      7.78390      1.30750      0.84649         0.185681      0.000000      0.321574
N     -1.20187      1.30750     -0.23408         0.530116     -0.000000      0.152978
N      6.61187      3.92250      1.55092        -0.530116      0.000000      0.152978
N      1.20187      3.92250      0.23408        -0.530116      0.000000     -0.152978
N      4.20813      1.30750      2.01908         0.530116     -0.000000     -0.152978
O      3.35243      1.30750      1.21032        -0.767183      0.000000      0.476127
O      2.05757      3.92250      2.99532         0.767183     -0.000000      0.476127
O      7.46757      3.92250      2.35968         0.767183     -0.000000     -0.476127
O      8.76243      1.30750      0.57468        -0.767183      0.000000     -0.476127
