16
# total energy = -89.36578076 eVC      2.68737      0.60362      1.54306        -0.513476     -0.116737      1.106885
C      2.64862      5.13362      1.50605         0.513476     -0.116737     -1.106885
C      0.86996      8.45638      5.15635         0.513476      0.116737     -1.106885
C      0.90870      3.92638      5.19335        -0.513476      0.116737      1.106885
N      0.03500      0.64937      0.15625        -0.317571     -2.281355     -0.905861
N     -0.04591      1.89937      0.20869        -0.223488      2.608128      0.861893
N      1.74366      5.17937      3.19345         0.317571     -2.281355      0.905861
N      1.82457      6.42937      3.14101         0.223488      2.608128     -0.861893
N     -0.03500      8.41063     -0.15625         0.317571      2.281355      0.905861
N      0.04591      7.16063      6.79131         0.223488     -2.608128     -0.861893
N      1.81366      3.88063      3.50595        -0.317571      2.281355     -0.905861
N      1.73275      2.63063      3.55840        -0.223488     -2.608128      0.861893
O      2.57113      1.63293      1.77664         0.594949      1.099366     -1.219054
O      2.76486      6.16293      1.27247        -0.594949      1.099366      1.219054
O      0.98620      7.42707      4.92277        -0.594949     -1.099366      1.219054
O      0.79247      2.89707      5.42693         0.594949     -1.099366     -1.219054
