18
# total energy = -100.90546162 eVH      0.60302      4.26435      9.02022         1.252561     -1.586062     -0.131984
H      0.54372      1.18875      0.20043         0.892329      1.402299      0.248350
H      3.27634      0.47617      8.19748        -1.122906      0.406444     -1.695823
H      3.20590      0.17367      0.68882        -1.224462     -0.344026      1.526070
H      1.87656      2.53484      6.95868         0.005642     -0.147769     -0.142062
H      0.60302      0.41465      4.46422         1.252561      1.586062     -0.131984
H      0.54372      3.49025      4.75643         0.892329     -1.402299      0.248350
H      3.27634      4.20283      3.64148        -1.122906     -0.406444     -1.695823
H      3.20590      4.50533      5.24482        -1.224462      0.344026      1.526070
H      1.87656      2.14416      2.40268         0.005642      0.147769     -0.142062
C      1.90640      1.68019      6.20363        -0.190286      3.688713      3.152083
C      1.90640      2.99881      1.64763        -0.190286     -3.688713      3.152083
N     -0.00252      0.36840     -0.00196         0.227069      0.220005      0.057332
N     -0.00252      4.31060      4.55404         0.227069     -0.220005      0.057332
O      1.51201      2.01331      5.08750        -0.706545     -0.511173     -2.859201
O      2.32109      0.63194      6.69336         0.866599     -2.980206     -0.154765
O      1.51201      2.66569      0.53150        -0.706545      0.511173     -2.859201
O      2.32109      4.04706      2.13736         0.866599      2.980206     -0.154765
