18
# total energy = -101.79983240 eVH      0.63825      4.23851      9.04627         0.000210      0.010796     -0.011632
H      0.56627      1.24914      0.19111        -0.005534     -0.003535      0.020265
H      3.26251      0.50068      8.13922        -0.016683      0.016382     -0.060599
H      3.17125      0.17964      0.71012        -0.006253     -0.009357     -0.019821
H      1.86840      2.57218      6.99598        -0.009673      0.052620      0.022113
H      0.63825      0.44049      4.49027         0.000210     -0.010796     -0.011632
H      0.56627      3.42986      4.74711        -0.005534      0.003535      0.020265
H      3.26251      4.17832      3.58322        -0.016683     -0.016382     -0.060599
H      3.17125      4.49936      5.26612        -0.006253      0.009357     -0.019821
H      1.86840      2.10682      2.43998        -0.009673     -0.052620      0.022113
C      1.89880      1.74821      6.24937         0.051765     -0.091037      0.076390
C      1.89880      2.93079      1.69337         0.051765      0.091037      0.076390
N      0.00250      0.38407     -0.01188         0.029750     -0.007760      0.060219
N      0.00250      4.29493      4.54412         0.029750      0.007760      0.060219
O      1.45665      1.98670      5.08570        -0.021743     -0.006039     -0.071653
O      2.37789      0.63650      6.64226        -0.021840      0.035177     -0.015282
O      1.45665      2.69230      0.52970        -0.021743      0.006039     -0.071653
O      2.37789      4.04250      2.08626        -0.021840     -0.035177     -0.015282
