18
# total energy = -88.56608124 eVH      0.78636      4.03224      8.99561        -3.073742      3.274415     -0.128081
H      0.72039      1.45711      0.26090        -2.210502     -3.351846     -0.669622
H      3.10935      0.51729      7.93982         2.313841     -0.473433      3.623832
H      3.02106      0.11595      0.91776         3.001927      1.316189     -3.227914
H      1.86591      2.85800      7.24507         0.021218     -1.844331     -1.628847
H      0.78636      0.64676      4.43961        -3.073742     -3.274415     -0.128081
H      0.72039      3.22189      4.81690        -2.210502      3.351846     -0.669622
H      3.10935      4.16171      3.38382         2.313841      0.473433      3.623832
H      3.02106      4.56305      5.47376         3.001927     -1.316189     -3.227914
H      1.86591      1.82100      2.68907         0.021218      1.844331     -1.628847
C      1.91665      1.43487      5.99774        -0.889040      7.088418      4.498555
C      1.91665      3.24413      1.44174        -0.889040     -7.088418      4.498555
N     -0.01052      0.34812     -0.00820         0.265447      0.162588      0.217131
N     -0.01052      4.33088      4.54780         0.265447     -0.162588      0.217131
O      1.47472      2.03244      4.97595         1.234498     -3.545213      0.555330
O      2.35861      0.53324      6.72350        -0.663646     -0.902453     -3.240384
O      1.47472      2.64656      0.41995         1.234498      3.545213      0.555330
O      2.35861      4.14576      2.16750        -0.663646      0.902453     -3.240384
