16
# total energy = -94.40919784 eVH      1.38886      4.21986      1.33631         4.338792      4.338792      3.671760
H      0.80312      3.63412      0.01054         0.016425      0.016425     -2.841006
H      4.27314      1.44214      1.33631        -4.338792     -4.338792      3.671760
H      4.85888      2.02788      0.01054        -0.016425     -0.016425     -2.841006
H      4.21986      4.27314      3.37969         4.338792     -4.338792     -3.671760
H      3.63412      4.85888     -0.01054         0.016425     -0.016425      2.841006
H      1.44214      1.38886      3.37969        -4.338792      4.338792     -3.671760
H      2.02788      0.80312     -0.01054        -0.016425      0.016425      2.841006
C      0.00000      2.83100      1.56248        -0.000000      0.000000      5.112576
C      2.83100      0.00000      3.15352        -0.000000      0.000000     -5.112576
N      0.80113      3.63213      0.97778        -2.076961     -2.076961     -4.685618
N      4.86087      2.02987      0.97778         2.076961      2.076961     -4.685618
N      3.63213      4.86087      3.73822        -2.076961      2.076961      4.685618
N      2.02987      0.80113      3.73822         2.076961     -2.076961      4.685618
O      0.00000      2.83100      2.82126        -0.000000      0.000000      2.696479
O      2.83100      0.00000      1.89474        -0.000000      0.000000     -2.696479
