40
# total energy = -224.74467720 eVH      6.12651      1.30725      6.12844        -0.066183     -0.039239     -0.011219
H      4.92652      3.04520      4.94871        -0.020443     -0.024895     -0.025058
H      5.85012      4.23158      3.94276        -0.056880      0.035505      0.024806
H      5.81964      4.37529      5.73999         0.018393      0.041490      0.148600
H      6.13131      1.35171      3.70718        -0.068428     -0.088145     -0.064265
H      4.41669      4.18415      1.77574         0.066183      0.039239     -0.011219
H      5.61668      2.44620      0.59601         0.020443      0.024895     -0.025058
H      4.69308      1.25982      8.29546         0.056880     -0.035505      0.024806
H      4.72356      1.11611      1.38729        -0.018393     -0.041490      0.148600
H      4.41189      4.13969      8.05988         0.068428      0.088145     -0.064265
H      2.61211      4.18415      1.77574        -0.066183      0.039239     -0.011219
H      1.41212      2.44620      0.59601        -0.020443      0.024895     -0.025058
H      2.33572      1.25982      8.29546        -0.056880     -0.035505      0.024806
H      2.30524      1.11611      1.38729         0.018393     -0.041490      0.148600
H      2.61691      4.13969      8.05988        -0.068428      0.088145     -0.064265
H      0.90229      1.30725      6.12844         0.066183     -0.039239     -0.011219
H      2.10228      3.04520      4.94871         0.020443     -0.024895     -0.025058
H      1.17868      4.23158      3.94276         0.056880      0.035505      0.024806
H      1.20916      4.37529      5.73999        -0.018393      0.041490      0.148600
H      0.89749      1.35171      3.70718         0.068428     -0.088145     -0.064265
H     -0.00000      2.54426      7.04817         0.000000      0.231318      0.135808
H     -0.00000      2.67412      2.85762         0.000000     -0.170784      0.007613
H      3.51440      2.94714      2.69547         0.000000     -0.231318      0.135808
H      3.51440      2.81728      7.21032         0.000000      0.170784      0.007613
C      5.81118      3.68718      4.89374        -0.005502     -0.023524      0.097869
C      4.73202      1.80422      0.54104         0.005502      0.023524      0.097869
C      2.29678      1.80422      0.54104        -0.005502      0.023524      0.097869
C      1.21762      3.68718      4.89374         0.005502     -0.023524      0.097869
C     -0.00000      4.80874      0.62584         0.000000     -0.037438      0.210255
C     -0.00000      1.92513      6.15287         0.000000      0.083094     -0.088102
C     -0.00000      1.97275      3.70616         0.000000      0.049038     -0.047887
C      3.51440      0.68266      4.97854         0.000000      0.037438      0.210255
C      3.51440      3.56627      1.80017         0.000000     -0.083094     -0.088102
C      3.51440      3.51865     -0.64654         0.000000     -0.049038     -0.047887
N     -0.00000      4.81407      1.83090         0.000000     -0.061665     -0.324373
N     -0.00000      2.81438      4.94757         0.000000      0.023669     -0.296878
N      3.51440      0.67733      6.18360         0.000000      0.061665     -0.324373
N      3.51440      2.67702      0.59487         0.000000     -0.023669     -0.296878
O     -0.00000      4.79208      8.09971         0.000000     -0.002511      0.062097
O      3.51440      0.69932      3.74701         0.000000      0.002511      0.062097
