16
# total energy = -105.89454201 eVC      2.35702      1.46929      2.24411         0.604949      2.753641     -0.051762
C      2.97897      5.99929      0.80500        -0.604949      2.753641      0.051762
C      1.20031      7.59071      4.45529        -0.604949     -2.753641      0.051762
C      0.57836      3.06071      5.89441         0.604949     -2.753641     -0.051762
N     -0.03370      0.49674      0.43216        -1.315042     -1.465446     -2.146306
N     -0.59480      1.50738      0.96227         1.051907      2.010093      2.448433
N      1.81236      5.02674      2.91754         1.315042     -1.465446      2.146306
N      2.37347      6.03738      2.38743        -1.051907      2.010093     -2.448433
N      0.03370      8.56326     -0.43216         1.315042      1.465446      2.146306
N      0.59480      7.55262      6.03773        -1.051907     -2.010093     -2.448433
N      1.74496      4.03326      3.78186        -1.315042      1.465446     -2.146306
N      1.18386      3.02262      4.31197         1.051907     -2.010093      2.448433
O      2.78325      2.34459      1.65209        -1.233202     -3.980779     -0.944009
O      2.55273      6.87459      1.39702         1.233202     -3.980779      0.944009
O      0.77407      6.71541      5.04732         1.233202      3.980779      0.944009
O      1.00459      2.18541      5.30239        -1.233202      3.980779     -0.944009
