12
# total energy = -76.37239397 eVC      2.36480      1.30750      0.84635         0.820597      0.000000      0.496758
C      3.04520      3.92250      2.63135        -0.820597      0.000000      0.496758
C      8.45520      3.92250      2.72365        -0.820597     -0.000000     -0.496758
C      7.77480      1.30750      0.93865         0.820597     -0.000000     -0.496758
N     -1.10667      1.30750     -0.15950        -1.435118     -0.000000      0.878500
N      6.51667      3.92250      1.62550         1.435118      0.000000      0.878500
N      1.10667      3.92250      0.15950         1.435118     -0.000000     -0.878500
N      4.30333      1.30750      1.94450        -1.435118      0.000000     -0.878500
O      3.25269      1.30750      1.37763         0.593218      0.000000      0.384862
O      2.15731      3.92250      3.16263        -0.593218      0.000000      0.384862
O      7.56731      3.92250      2.19237        -0.593218     -0.000000     -0.384862
O      8.66269      1.30750      0.40737         0.593218      0.000000     -0.384862
