38
# total energy = -218.66663411 eVH      3.52118      1.49620      2.12613        -0.024215      0.019505     -0.038438
H      3.84615      2.82170      1.04679        -0.025847     -0.100307      0.010422
H      2.78967      3.02607      2.35291         0.037463      0.068593     -0.101276
H      2.34242      2.04959      1.02214        -0.084492     -0.061957     -0.010066
H      3.22857     10.11548     -0.10720        -0.148800     -0.053064     -0.134658
H      4.49582      8.81280      2.12613         0.024215     -0.019505     -0.038438
H      4.17085      7.48730      1.04679         0.025847      0.100307      0.010422
H      5.22733      7.28293      2.35291        -0.037463     -0.068593     -0.101276
H      5.67458      8.25941      1.02214         0.084492      0.061957     -0.010066
H      4.78843      0.19352     -0.10720         0.148800      0.053064     -0.134658
H      0.48732      6.65070      1.60887         0.024215      0.019505      0.038438
H      0.16235      7.97620      2.68821         0.025847     -0.100307     -0.010422
H      1.21883      8.18057      1.38209        -0.037463      0.068593      0.101276
H      1.66608      7.20409      2.71286         0.084492     -0.061957      0.010066
H      0.77993      4.96098      0.10720         0.148800     -0.053064      0.134658
H      7.52968      3.65830      1.60887        -0.024215     -0.019505      0.038438
H      7.85465      2.33280      2.68821        -0.025847      0.100307     -0.010422
H      6.79817      2.12843      1.38209         0.037463     -0.068593      0.101276
H      6.35092      3.10491      2.71286        -0.084492      0.061957      0.010066
H      7.23707      5.34802      0.10720        -0.148800      0.053064      0.134658
C      0.74615      0.24511      0.25894         0.120193     -0.167196     -0.049552
C      7.27085     10.06389      0.25894        -0.120193      0.167196     -0.049552
C      3.26235      5.39961      3.47606        -0.120193     -0.167196      0.049552
C      4.75465      4.90939      3.47606         0.120193      0.167196      0.049552
N      3.12833      2.33757      1.64123         0.076156      0.019372      0.032717
N      4.88867      7.97143      1.64123        -0.076156     -0.019372      0.032717
N      0.88017      7.49207      2.09377        -0.076156      0.019372     -0.032717
N      7.13683      2.81693      2.09377         0.076156     -0.019372     -0.032717
O      1.64199      9.69319      0.52178        -0.068752      0.088566      0.012612
O      0.95580      1.46559     -0.01389         0.032395      0.076584      0.020333
O      6.37501      0.61581      0.52178         0.068752     -0.088566      0.012612
O      7.06120      8.84341     -0.01389        -0.032395     -0.076584      0.020333
O      2.36651      4.53869      3.21322         0.068752      0.088566     -0.012612
O      3.05270      6.62009      0.01389        -0.032395      0.076584     -0.020333
O      5.65049      5.77031      3.21322        -0.068752     -0.088566     -0.012612
O      4.96430      3.68891      0.01389         0.032395     -0.076584     -0.020333
O      4.00850      0.00000      3.03523        -0.000000     -0.000000      0.200802
O     -0.00000      5.15450      0.69977        -0.000000     -0.000000     -0.200802
