16
# total energy = -82.46807979 eVC      2.83786      0.63558      1.29863        -0.225099     -2.423960      0.673066
C      2.49813      5.16558      1.75048         0.225099     -2.423960     -0.673066
C      0.71946      8.42442      5.40078         0.225099      2.423960     -0.673066
C      1.05920      3.89442      4.94892        -0.225099      2.423960      0.673066
N     -0.26861      0.75525      0.16097         2.114771     -8.414802     -1.447225
N      0.03262      1.94515      0.30803         0.221243      4.743527      0.385903
N      2.04727      5.28525      3.18874        -2.114771     -8.414802      1.447225
N      1.74604      6.47515      3.04167        -0.221243      4.743527     -0.385903
N      0.26861      8.30475     -0.16097        -2.114771      8.414802      1.447225
N     -0.03262      7.11485      6.69197        -0.221243     -4.743527     -0.385903
N      1.51006      3.77475      3.51067         2.114771      8.414802     -1.447225
N      1.81128      2.58485      3.65774         0.221243     -4.743527      0.385903
O      2.49612      1.44193      1.88780         0.103341      3.135017     -0.172923
O      2.83986      5.97193      1.16131        -0.103341      3.135017      0.172923
O      1.06120      7.61807      4.81160        -0.103341     -3.135017      0.172923
O      0.71746      3.08807      5.53810         0.103341     -3.135017     -0.172923
