40
# total energy = -224.80334189 eVH      6.12487      1.32591      6.13222         0.051079      0.072115      0.026535
H      4.92404      3.04074      4.95517         0.045874      0.038607     -0.007417
H      5.82233      4.25959      3.97113        -0.015519      0.055287     -0.032705
H      5.82693      4.35812      5.77782         0.023457     -0.088054     -0.038171
H      6.13062      1.32246      3.68530         0.005077      0.018923      0.036665
H      4.41833      4.16549      1.77952        -0.051079     -0.072115      0.026535
H      5.61916      2.45066      0.60247        -0.045874     -0.038607     -0.007417
H      4.72087      1.23181      8.32383         0.015519     -0.055287     -0.032705
H      4.71627      1.13328      1.42512        -0.023457      0.088054     -0.038171
H      4.41258      4.16894      8.03800        -0.005077     -0.018923      0.036665
H      2.61047      4.16549      1.77952         0.051079     -0.072115      0.026535
H      1.40964      2.45066      0.60247         0.045874     -0.038607     -0.007417
H      2.30793      1.23181      8.32383        -0.015519     -0.055287     -0.032705
H      2.31253      1.13328      1.42512         0.023457      0.088054     -0.038171
H      2.61622      4.16894      8.03800         0.005077     -0.018923      0.036665
H      0.90393      1.32591      6.13222        -0.051079      0.072115      0.026535
H      2.10476      3.04074      4.95517        -0.045874      0.038607     -0.007417
H      1.20647      4.25959      3.97113         0.015519      0.055287     -0.032705
H      1.20187      4.35812      5.77782        -0.023457     -0.088054     -0.038171
H      0.89818      1.32246      3.68530        -0.005077      0.018923      0.036665
H     -0.00000      2.60118      7.02928         0.000000      0.041818     -0.021910
H     -0.00000      2.62266      2.82025         0.000000      0.047744     -0.042633
H      3.51440      2.89022      2.67658         0.000000     -0.041818     -0.021910
H      3.51440      2.86874      7.17295         0.000000     -0.047744     -0.042633
C      5.80607      3.69160      4.90640         0.006560     -0.091018      0.077503
C      4.73713      1.79980      0.55370        -0.006560      0.091018      0.077503
C      2.29167      1.79980      0.55370         0.006560      0.091018      0.077503
C      1.22273      3.69160      4.90640        -0.006560     -0.091018      0.077503
C     -0.00000      4.79287      0.61871         0.000000     -0.045914     -0.202021
C     -0.00000      1.95067      6.14772         0.000000     -0.113273     -0.040903
C     -0.00000      1.94880      3.68335         0.000000      0.093472      0.248325
C      3.51440      0.69853      4.97141         0.000000      0.045914     -0.202021
C      3.51440      3.54073      1.79502         0.000000      0.113273     -0.040903
C      3.51440      3.54260     -0.66935         0.000000     -0.093472      0.248325
N     -0.00000      4.78271      1.81964         0.000000     -0.033221      0.009933
N     -0.00000      2.81744      4.92489         0.000000     -0.067307     -0.213300
N      3.51440      0.70869      6.17234         0.000000      0.033221      0.009933
N      3.51440      2.67396      0.57219         0.000000      0.067307     -0.213300
O     -0.00000      4.78769      8.09055         0.000000      0.009427      0.137687
O      3.51440      0.70371      3.73785         0.000000     -0.009427      0.137687
