36
# total energy = -216.70901904 eVH      4.02776      2.35480      2.28902         0.014400      0.021412      0.058262
H      4.21473      1.57795     -0.03558         0.041516      0.063079      0.024791
H      6.84083      0.90718      0.70465        -0.006896     -0.024495     -0.068966
H      0.71164      0.60620      3.28428         0.033008     -0.044722      0.037073
H      6.51744      0.84275      4.29264         0.055987     -0.043659     -0.030521
H      5.00380      1.71455      4.25963        -0.037174      0.040111      0.021456
H      4.02776      1.16120      9.46802         0.014400     -0.021412      0.058262
H      4.21473      1.93805      7.14342         0.041516     -0.063079      0.024791
H      6.84083      2.60882      7.88365        -0.006896      0.024495     -0.068966
H      0.71164      2.90980     10.46328         0.033008      0.044722      0.037073
H      6.51744      2.67325     11.47164         0.055987      0.043659     -0.030521
H      5.00380      1.80145     11.43863        -0.037174     -0.040111      0.021456
C      5.83621      1.36686      2.42035        -0.016751      0.033984     -0.023034
C      5.83621      2.14914      9.59935        -0.016751     -0.033984     -0.023034
N      1.59482      3.47602      5.43432         0.018602     -0.038180      0.055207
N      1.42403      3.14077      6.77633         0.026970     -0.026757      0.046334
N      2.70926      3.01828      4.80755        -0.006104     -0.037404     -0.026852
N      4.73528      1.81572      1.77783        -0.047460     -0.043544     -0.003697
N      6.88465      0.95235      1.72101         0.014760     -0.046274     -0.006085
N      5.80802      1.33752      3.75470         0.010706      0.049731      0.022542
N      1.59482      0.03998     12.61332         0.018602      0.038180      0.055207
N      1.42403      0.37523     13.95533         0.026970      0.026757      0.046334
N      2.70926      0.49772     11.98655        -0.006104      0.037404     -0.026852
N      4.73528      1.70028      8.95683        -0.047460      0.043544     -0.003697
N      6.88465      2.56365      8.90001         0.014760      0.046274     -0.006085
N      5.80802      2.17848     10.93370         0.010706     -0.049731      0.022542
O      2.24517      2.56087      7.49850         0.006928     -0.013494     -0.047791
O      0.29704     -0.00001      7.18163        -0.014276      0.022701     -0.061140
O      3.63466      2.35692      5.33495        -0.035790      0.025560      0.021009
O      2.71976      3.31868      3.58385         0.004196      0.019961     -0.018465
O      4.87194      2.15381      0.43295        -0.062621     -0.044102     -0.000124
O      2.24517      0.95513      0.31950         0.006928      0.013494     -0.047791
O      0.29704      0.00001      0.00263        -0.014276     -0.022701     -0.061140
O      3.63466      1.15908     12.51395        -0.035790     -0.025560      0.021009
O      2.71976      0.19732     10.76285         0.004196     -0.019961     -0.018465
O      4.87194      1.36219      7.61195        -0.062621      0.044102     -0.000124
