12
# total energy = -76.48870507 eVC      2.37227      1.30750      0.87229        -0.070064      0.000000     -0.003525
C      3.03773      3.92250      2.65729         0.070064     -0.000000     -0.003525
C      8.44773      3.92250      2.69771         0.070064      0.000000      0.003525
C      7.78227      1.30750      0.91271        -0.070064      0.000000      0.003525
N     -1.11400      1.30750     -0.12667        -0.134569      0.000000      0.119964
N      6.52400      3.92250      1.65833         0.134569      0.000000      0.119964
N      1.11400      3.92250      0.12667         0.134569      0.000000     -0.119964
N      4.29600      1.30750      1.91167        -0.134569      0.000000     -0.119964
O      3.24041      1.30750      1.38743         0.176212      0.000000      0.129226
O      2.16959      3.92250      3.17243        -0.176212     -0.000000      0.129226
O      7.57959      3.92250      2.18257        -0.176212     -0.000000     -0.129226
O      8.65041      1.30750      0.39757         0.176212      0.000000     -0.129226
