12
# total energy = -76.48131401 eVC      2.39040      1.30750      0.84996        -0.126263     -0.000000      0.013282
C      3.01960      3.92250      2.63496         0.126263     -0.000000      0.013282
C      8.42960      3.92250      2.72004         0.126263      0.000000     -0.013282
C      7.80040      1.30750      0.93504        -0.126263      0.000000     -0.013282
N     -1.11552      1.30750     -0.12725         0.034428     -0.000000     -0.016510
N      6.52552      3.92250      1.65775        -0.034428     -0.000000     -0.016510
N      1.11552      3.92250      0.12725        -0.034428     -0.000000      0.016510
N      4.29448      1.30750      1.91225         0.034428     -0.000000      0.016510
O      3.23144      1.30750      1.40686         0.071047      0.000000     -0.023874
O      2.17856      3.92250      3.19186        -0.071047     -0.000000     -0.023874
O      7.58856      3.92250      2.16314        -0.071047      0.000000      0.023874
O      8.64144      1.30750      0.37814         0.071047      0.000000      0.023874
