12
# total energy = -41.73979459 eVC      1.97229      1.30750      0.83623         0.608410     -0.000000      0.213809
C      3.43771      3.92250      2.62123        -0.608410     -0.000000      0.213809
C      8.84771      3.92250      2.73377        -0.608410      0.000000     -0.213809
C      7.38229      1.30750      0.94877         0.608410     -0.000000     -0.213809
N      0.34371      1.30750      0.25975        -0.598334     -0.000000     -0.122039
N      5.06629      3.92250      2.04475         0.598334      0.000000     -0.122039
N     10.47629      3.92250      3.31025         0.598334     -0.000000      0.122039
N      5.75371      1.30750      1.52525        -0.598334     -0.000000      0.122039
O      3.04172      1.30750      1.23354        -0.510467      0.000000     -0.293003
O      2.36828      3.92250      3.01854         0.510467     -0.000000     -0.293003
O      7.77828      3.92250      2.33646         0.510467     -0.000000      0.293003
O      8.45172      1.30750      0.55146        -0.510467      0.000000      0.293003
