56
# total energy = -353.17070485 eVH      5.16699      2.28701      4.06961        -0.005681      0.057744     -0.064493
H      6.56098      1.99011      5.11924         0.021868     -0.048290     -0.091618
H      3.08195      1.99752      4.85597        -0.054146     -0.006515      0.043784
H      2.78033      1.28791      6.43974         0.048105      0.010385     -0.085258
H      5.21436      5.56276      1.55657         0.005681      0.057744      0.064493
H      3.82036      5.26586      0.50694        -0.021868     -0.048290      0.091618
H      0.37850      5.27327      0.77746         0.054146     -0.006515     -0.043784
H      0.68011      4.56366     10.46778        -0.048105      0.010385      0.085258
H      1.75391      4.26449      7.19724         0.005681     -0.057744      0.064493
H      0.35991      4.56139      6.14762        -0.021868      0.048290      0.091618
H      3.83894      4.55398      6.41089         0.054146      0.006515     -0.043784
H      4.14056      5.26359      4.82711        -0.048105     -0.010385      0.085258
H      1.70654      0.98874      9.71029        -0.005681     -0.057744     -0.064493
H      3.10053      1.28564     10.75991         0.021868      0.048290     -0.091618
H      6.54240      1.27823     10.48939        -0.054146      0.006515      0.043784
H      6.24078      1.98784      0.79907         0.048105     -0.010385     -0.085258
C      5.31322      1.10241      7.19413         0.097718      0.001425      0.065691
C      4.75418      1.57181      5.93180        -0.162750     -0.055665      0.107984
C      5.06813      4.37816      9.70615        -0.097718      0.001425     -0.065691
C      5.62717      4.84756     10.96847         0.162750     -0.055665     -0.107984
C      1.60768      5.44909      4.07272        -0.097718     -0.001425     -0.065691
C      2.16672      4.97969      5.33505         0.162750      0.055665     -0.107984
C      1.85277      2.17334      1.56070         0.097718     -0.001425      0.065691
C      1.29373      1.70394      0.29838        -0.162750      0.055665      0.107984
N      6.69065      0.94443      7.42472         0.005924      0.011183      0.036669
N      4.45168      0.83152      8.28139        -0.045364      0.007742      0.002042
N      5.55472      1.96322      4.95629         0.069223      0.064935     -0.120457
N      3.43571      1.66839      5.75635         0.081120     -0.047430      0.028149
N      3.69070      4.22018      9.47556        -0.005924      0.011183     -0.036669
N      5.92967      4.10727      8.61889         0.045364      0.007742     -0.002042
N      4.82662      5.23897      0.66989        -0.069223      0.064935      0.120457
N      0.02474      4.94414     11.15117        -0.081120     -0.047430     -0.028149
N      0.23025      5.60707      3.84213        -0.005924     -0.011183     -0.036669
N      2.46922      5.71998      2.98546         0.045364     -0.007742     -0.002042
N      1.36618      4.58828      6.31057        -0.069223     -0.064935      0.120457
N      3.48519      4.88311      5.51050        -0.081120      0.047430     -0.028149
N      3.23020      2.33132      1.79129         0.005924     -0.011183      0.036669
N      0.99123      2.44423      2.64796        -0.045364     -0.007742      0.002042
N      2.09427      1.31253     10.59696         0.069223     -0.064935     -0.120457
N     -0.02474      1.60736      0.12293         0.081120      0.047430      0.028149
O      0.17780      0.37694      8.47641        -0.066521     -0.004974      0.085701
O      0.58558      1.32009      6.54578         0.008551      0.062670     -0.095806
O      3.30805      0.37449      8.03766        -0.063099      0.006640     -0.025385
O      4.81211      1.08047      9.45502         0.071848     -0.024846      0.052562
O      3.28265      3.65269      8.43112         0.066521     -0.004974     -0.085701
O      2.87487      4.59584     10.36174        -0.008551      0.062670      0.095806
O      0.15240      3.65024      8.86986         0.063099      0.006640      0.025385
O      5.56923      4.35622      7.44526        -0.071848     -0.024846     -0.052562
O      6.74310      6.17456      2.79044         0.066521      0.004974     -0.085701
O      6.33532      5.23141      4.72107        -0.008551     -0.062670      0.095806
O      3.61284      6.17701      3.22919         0.063099     -0.006640      0.025385
O      2.10878      5.47103      1.81183        -0.071848      0.024846     -0.052562
O      3.63824      2.89881      2.83574        -0.066521      0.004974      0.085701
O      4.04602      1.95566      0.90511         0.008551     -0.062670     -0.095806
O      6.76850      2.90126      2.39699        -0.063099     -0.006640     -0.025385
O      1.35166      2.19528      3.82159         0.071848      0.024846      0.052562
