36
# total energy = -216.36001743 eVH      4.08005      2.36207      2.29372        -0.829380      0.528281      0.007296
H      4.22449      1.53234     -0.12203        -0.650393     -0.637449      0.073730
H      6.92488      1.01003      0.67276        -0.248896     -0.133407      1.152688
H      0.63056      0.63245      3.34952         0.712597     -0.263634      0.092585
H      6.49348      0.81002      4.30298        -0.184061      0.242238     -0.426454
H      4.96887      1.65301      4.24784         0.038789      0.075483      0.080857
H      4.08005      1.15393      9.47272        -0.829380     -0.528281      0.007296
H      4.22449      1.98366      7.05697        -0.650393      0.637449      0.073730
H      6.92488      2.50597      7.85176        -0.248896      0.133407      1.152688
H      0.63056      2.88355     10.52852         0.712597      0.263634      0.092585
H      6.49348      2.70598     11.48198        -0.184061     -0.242238     -0.426454
H      4.96887      1.86299     11.42684         0.038789     -0.075483      0.080857
C      5.81182      1.39435      2.40624         0.378565     -0.376569     -0.031470
C      5.81182      2.12165      9.58524         0.378565      0.376569     -0.031470
N      1.57004      3.43450      5.43354         0.320862     -0.075077      0.050090
N      1.44541      3.14164      6.78328        -0.344583      0.044814      0.398289
N      2.71346      3.01917      4.82888         0.257612     -0.145149     -0.000604
N      4.69959      1.78591      1.74315         0.205440     -0.456111      0.242185
N      6.86999      0.99809      1.72147         0.006222      0.048729     -1.187180
N      5.82185      1.37405      3.75787        -0.299701      0.006545     -0.320453
N      1.57004      0.08150     12.61254         0.320862      0.075077      0.050090
N      1.44541      0.37436     13.96228        -0.344583     -0.044814      0.398289
N      2.71346      0.49683     12.00788         0.257612      0.145149     -0.000604
N      4.69959      1.73009      8.92215         0.205440      0.456111      0.242185
N      6.86999      2.51791      8.90047         0.006222     -0.048729     -1.187180
N      5.82185      2.14195     10.93687        -0.299701     -0.006545     -0.320453
O      2.29171      2.60033      7.51118        -0.352235      0.130483     -0.203181
O      0.31020     -0.00542      7.19946         0.264189     -0.117118     -0.074268
O      3.66950      2.41509      5.39067        -0.305211      0.136199     -0.404705
O      2.73125      3.28993      3.60116         0.026088      0.007657      0.048486
O      4.81990      2.10170      0.39690         1.004094      0.965956      0.502110
O      2.29171      0.91567      0.33218        -0.352235     -0.130483     -0.203181
O      0.31020      0.00542      0.02046         0.264189      0.117118     -0.074268
O      3.66950      1.10091     12.56967        -0.305211     -0.136199     -0.404705
O      2.73125      0.22607     10.78016         0.026088     -0.007657      0.048486
O      4.81990      1.41430      7.57590         1.004094     -0.965956      0.502110
