40
# total energy = -224.81575835 eVH      6.12565      1.33594      6.13718        -0.031113     -0.006739      0.001821
H      4.92247      3.03910      4.95711         0.039299      0.003295     -0.020620
H      5.81320      4.27321      3.97906        -0.000911     -0.040538      0.045167
H      5.83617      4.34000      5.78481         0.011126     -0.028549      0.022244
H      6.13014      1.32024      3.69033         0.017568      0.012932      0.016606
H      4.41755      4.15546      1.78448         0.031113      0.006739      0.001821
H      5.62073      2.45230      0.60441        -0.039299     -0.003295     -0.020620
H      4.73000      1.21819      8.33176         0.000911      0.040538      0.045167
H      4.70703      1.15140      1.43211        -0.011126      0.028549      0.022244
H      4.41306      4.17116      8.04303        -0.017568     -0.012932      0.016606
H      2.61125      4.15546      1.78448        -0.031113      0.006739      0.001821
H      1.40807      2.45230      0.60441         0.039299     -0.003295     -0.020620
H      2.29880      1.21819      8.33176        -0.000911      0.040538      0.045167
H      2.32177      1.15140      1.43211         0.011126      0.028549      0.022244
H      2.61574      4.17116      8.04303         0.017568     -0.012932      0.016606
H      0.90315      1.33594      6.13718         0.031113     -0.006739      0.001821
H      2.10633      3.03910      4.95711        -0.039299      0.003295     -0.020620
H      1.21560      4.27321      3.97906         0.000911     -0.040538      0.045167
H      1.19263      4.34000      5.78481        -0.011126     -0.028549      0.022244
H      0.89866      1.32024      3.69033        -0.017568      0.012932      0.016606
H     -0.00000      2.61980      7.01673         0.000000     -0.013915     -0.074149
H     -0.00000      2.61654      2.81131         0.000000     -0.068081      0.100410
H      3.51440      2.87160      2.66403         0.000000      0.013915     -0.074149
H      3.51440      2.87486      7.16401         0.000000      0.068081      0.100410
C      5.80589      3.68639      4.90701         0.012124      0.031808     -0.084149
C      4.73731      1.80501      0.55431        -0.012124     -0.031808     -0.084149
C      2.29149      1.80501      0.55431         0.012124     -0.031808     -0.084149
C      1.22291      3.68639      4.90701        -0.012124      0.031808     -0.084149
C     -0.00000      4.78569      0.61210         0.000000     -0.054152      0.133746
C     -0.00000      1.95573      6.14211         0.000000      0.065547      0.054031
C     -0.00000      1.94634      3.68495         0.000000      0.087445     -0.098578
C      3.51440      0.70571      4.96480         0.000000      0.054152      0.133746
C      3.51440      3.53567      1.78941         0.000000     -0.065547      0.054031
C      3.51440      3.54506     -0.66775         0.000000     -0.087445     -0.098578
N     -0.00000      4.76788      1.81475         0.000000     -0.021342     -0.140613
N     -0.00000      2.81438      4.91082         0.000000     -0.002516      0.109026
N      3.51440      0.72352      6.16745         0.000000      0.021342     -0.140613
N      3.51440      2.67702      0.55812         0.000000      0.002516      0.109026
O     -0.00000      4.78598      8.08667         0.000000      0.018338     -0.046012
O      3.51440      0.70542      3.73397         0.000000     -0.018338     -0.046012
