6
# total energy = -42.69317460 eVZr      0.00000     -0.00000      3.99275        -0.000000     -0.000000      0.052907
Zr      1.64000      1.64000      9.79275        -0.000000     -0.000000      0.052907
Zr      0.00000      0.00000      7.60725         0.000000     -0.000000     -0.052907
Zr      1.64000      1.64000      1.80725         0.000000      0.000000     -0.052907
Au      0.00000     -0.00000      0.00000         0.000000      0.000000     -0.000000
Au      1.64000      1.64000      5.80000        -0.000000      0.000000     -0.000000
