36
# total energy = -216.68287316 eVH      4.02680      2.36449      2.27189         0.015620     -0.008080      0.038822
H      4.21763      1.54798     -0.04641         0.037659      0.076752     -0.003505
H      6.87769      0.96083      0.70946        -0.083734     -0.051308      0.044025
H      0.70468      0.61417      3.30344         0.044386     -0.028621      0.043323
H      6.50669      0.83421      4.26301        -0.017804      0.016551      0.134019
H      4.96630      1.68944      4.24948         0.040045      0.028369      0.089818
H      4.02680      1.15151      9.45089         0.015620      0.008080      0.038822
H      4.21763      1.96802      7.13259         0.037659     -0.076752     -0.003505
H      6.87769      2.55517      7.88846        -0.083734      0.051308      0.044025
H      0.70468      2.90183     10.48244         0.044386      0.028621      0.043323
H      6.50669      2.68179     11.44201        -0.017804     -0.016551      0.134019
H      4.96630      1.82656     11.42848         0.040045     -0.028369      0.089818
C      5.82917      1.37740      2.41779        -0.170084      0.038061     -0.153144
C      5.82917      2.13860      9.59679        -0.170084     -0.038061     -0.153144
N      1.59202      3.45099      5.43859         0.009864      0.041129     -0.049670
N      1.43108      3.14228      6.78695        -0.021956      0.011481     -0.045167
N      2.71736      3.01664      4.81526        -0.082893      0.024960      0.049899
N      4.72022      1.80199      1.76480         0.070430     -0.001492      0.124292
N      6.88894      0.97336      1.73004         0.050285     -0.033650     -0.116740
N      5.79181      1.34905      3.75156         0.122823     -0.036517     -0.111514
N      1.59202      0.06501     12.61759         0.009864     -0.041129     -0.049670
N      1.43108      0.37372     13.96595        -0.021956     -0.011481     -0.045167
N      2.71736      0.49936     11.99426        -0.082893     -0.024960      0.049899
N      4.72022      1.71401      8.94380         0.070430      0.001492      0.124292
N      6.88894      2.54264      8.90904         0.050285      0.033650     -0.116740
N      5.79181      2.16695     10.93056         0.122823      0.036517     -0.111514
O      2.26054      2.58533      7.51571         0.024734     -0.057882      0.002052
O      0.30140     -0.00092      7.18378        -0.028370      0.001948      0.031163
O      3.65883      2.38838      5.35239         0.003885     -0.065310     -0.005916
O      2.72189      3.30699      3.59022         0.010355      0.019784     -0.055449
O      4.86400      2.13657      0.42064        -0.025244     -0.031505     -0.016306
O      2.26054      0.93067      0.33671         0.024734      0.057882      0.002052
O      0.30140      0.00092      0.00478        -0.028370     -0.001948      0.031163
O      3.65883      1.12762     12.53139         0.003885      0.065310     -0.005916
O      2.72189      0.20901     10.76922         0.010355     -0.019784     -0.055449
O      4.86400      1.37943      7.59964        -0.025244      0.031505     -0.016306
