16
# total energy = -107.52670409 eVC      2.35020      1.59041      2.29735        -0.148064      1.541425      1.028841
C      2.98578      6.12041      0.75176         0.148064      1.541425     -1.028841
C      1.20712      7.46959      4.40206         0.148064     -1.541425     -1.028841
C      0.57154      2.93959      5.94765        -0.148064     -1.541425      1.028841
N     -0.09111      0.46192      0.45328        -1.439501      0.155570     -1.009667
N     -0.60502      1.49527      1.06864         2.636006     -2.808735     -2.812026
N      1.86978      4.99192      2.89643         1.439501      0.155570      1.009667
N      2.38368      6.02527      2.28107        -2.636006     -2.808735      2.812026
N      0.09111      8.59808     -0.45328         1.439501     -0.155570      1.009667
N      0.60502      7.56473      5.93136        -2.636006      2.808735      2.812026
N      1.68755      4.06808      3.80298        -1.439501     -0.155570     -1.009667
N      1.17364      3.03473      4.41834         2.636006      2.808735     -2.812026
O      2.75585      2.32317      1.64724        -1.330416      0.191809      1.847830
O      2.58013      6.85317      1.40187         1.330416      0.191809     -1.847830
O      0.80147      6.73683      5.05217         1.330416     -0.191809     -1.847830
O      0.97719      2.20683      5.29754        -1.330416     -0.191809      1.847830
