38
# total energy = -218.68146970 eVH      3.51758      1.49359      2.13193        -0.046747      0.126782     -0.080257
H      3.84968      2.80606      1.03470         0.008900     -0.051154     -0.026290
H      2.79578      3.03923      2.34149         0.092009     -0.043362     -0.165823
H      2.33424      2.03971      1.02458         0.105387      0.033568      0.083323
H      3.22895     10.10410     -0.11487        -0.214307     -0.036901      0.006548
H      4.49942      8.81541      2.13193         0.046747     -0.126782     -0.080257
H      4.16732      7.50294      1.03470        -0.008900      0.051154     -0.026290
H      5.22122      7.26977      2.34149        -0.092009      0.043362     -0.165823
H      5.68276      8.26929      1.02458        -0.105387     -0.033568      0.083323
H      4.78805      0.20490     -0.11487         0.214307      0.036901      0.006548
H      0.49092      6.64809      1.60307         0.046747      0.126782      0.080257
H      0.15882      7.96056      2.70030        -0.008900     -0.051154      0.026290
H      1.21272      8.19373      1.39351        -0.092009     -0.043362      0.165823
H      1.67426      7.19421      2.71042        -0.105387      0.033568     -0.083323
H      0.77955      4.94960      0.11487         0.214307     -0.036901     -0.006548
H      7.52608      3.66091      1.60307        -0.046747     -0.126782      0.080257
H      7.85818      2.34844      2.70030         0.008900      0.051154      0.026290
H      6.80428      2.11527      1.39351         0.092009      0.043362      0.165823
H      6.34274      3.11479      2.71042         0.105387     -0.033568     -0.083323
H      7.23745      5.35940      0.11487        -0.214307      0.036901     -0.006548
C      0.74697      0.24294      0.25334        -0.036528      0.118160     -0.071622
C      7.27003     10.06606      0.25334         0.036528     -0.118160     -0.071622
C      3.26153      5.39744      3.48166         0.036528      0.118160      0.071622
C      4.75547      4.91156      3.48166        -0.036528     -0.118160      0.071622
N      3.13186      2.33642      1.63667        -0.205528     -0.114804      0.098493
N      4.88514      7.97258      1.63667         0.205528      0.114804      0.098493
N      0.87664      7.49092      2.09833         0.205528     -0.114804     -0.098493
N      7.14036      2.81808      2.09833        -0.205528      0.114804     -0.098493
O      1.64188      9.69730      0.51880         0.052419     -0.088096      0.050155
O      0.95332      1.46733     -0.01534         0.058895     -0.001252      0.042360
O      6.37512      0.61170      0.51880        -0.052419      0.088096      0.050155
O      7.06368      8.84167     -0.01534        -0.058895      0.001252      0.042360
O      2.36662      4.54280      3.21620        -0.052419     -0.088096     -0.050155
O      3.05518      6.62183      0.01534        -0.058895     -0.001252     -0.042360
O      5.65038      5.76620      3.21620         0.052419      0.088096     -0.050155
O      4.96182      3.68717      0.01534         0.058895      0.001252     -0.042360
O      4.00850      0.00000      3.03773         0.000000     -0.000000     -0.067848
O     -0.00000      5.15450      0.69727         0.000000     -0.000000      0.067848
