16
# total energy = -103.48329951 eVC      2.46092      1.13823      1.96405        -0.046867      0.390374      0.655040
C      2.87507      5.66823      1.08506         0.046867      0.390374     -0.655040
C      1.09640      7.92177      4.73536         0.046867     -0.390374     -0.655040
C      0.68226      3.39177      5.61434        -0.046867     -0.390374      0.655040
N      0.07791      0.62567      0.16785        -2.345652     -2.034428     -0.808911
N     -0.40645      1.74147      0.67597         0.802497     -1.396084      1.852917
N      1.70075      5.15567      3.18186         2.345652     -2.034428      0.808911
N      2.18511      6.27147      2.67373        -0.802497     -1.396084     -1.852917
N     -0.07791      8.43433     -0.16785         2.345652      2.034428      0.808911
N      0.40645      7.31853      6.32403        -0.802497      1.396084     -1.852917
N      1.85658      3.90433      3.51755        -2.345652      2.034428     -0.808911
N      1.37221      2.78853      4.02568         0.802497      1.396084      1.852917
O      2.79293      2.03948      1.56164        -0.231623      1.032738     -1.071613
O      2.54305      6.56948      1.48747         0.231623      1.032738      1.071613
O      0.76439      7.02052      5.13777         0.231623     -1.032738      1.071613
O      1.01427      2.49052      5.21193        -0.231623     -1.032738     -1.071613
