38
# total energy = -218.61915603 eVH      3.53217      1.49677      2.10810        -0.051487     -0.003568      0.021570
H      3.84004      2.85083      1.07907         0.054791     -0.094794     -0.124237
H      2.77570      3.01061      2.37460         0.048085      0.039836     -0.127460
H      2.34803      2.06380      1.01493        -0.141287     -0.112552     -0.048851
H      3.20029     10.13667     -0.10917         0.150026     -0.069478      0.045440
H      4.48483      8.81223      2.10810         0.051487      0.003568      0.021570
H      4.17696      7.45817      1.07907        -0.054791      0.094794     -0.124237
H      5.24130      7.29839      2.37460        -0.048085     -0.039836     -0.127460
H      5.66897      8.24520      1.01493         0.141287      0.112552     -0.048851
H      4.81671      0.17233     -0.10917        -0.150026      0.069478      0.045440
H      0.47633      6.65127      1.62690         0.051487     -0.003568     -0.021570
H      0.16846      8.00533      2.65593        -0.054791     -0.094794      0.124237
H      1.23280      8.16511      1.36040        -0.048085      0.039836      0.127460
H      1.66047      7.21830      2.72007         0.141287     -0.112552      0.048851
H      0.80821      4.98217      0.10917        -0.150026     -0.069478     -0.045440
H      7.54067      3.65773      1.62690        -0.051487      0.003568     -0.021570
H      7.84854      2.30367      2.65593         0.054791      0.094794      0.124237
H      6.78420      2.14389      1.36040         0.048085     -0.039836      0.127460
H      6.35653      3.09070      2.72007        -0.141287      0.112552      0.048851
H      7.20879      5.32683      0.10917         0.150026      0.069478     -0.045440
C      0.75107      0.24038      0.25979        -0.058744      0.072735     -0.004701
C      7.26593     10.06862      0.25979         0.058744     -0.072735     -0.004701
C      3.25743      5.39488      3.47521         0.058744      0.072735      0.004701
C      4.75957      4.91412      3.47521        -0.058744     -0.072735      0.004701
N      3.12427      2.34308      1.64695         0.128054      0.046348      0.163201
N      4.89273      7.96592      1.64695        -0.128054     -0.046348      0.163201
N      0.88423      7.49758      2.08805        -0.128054      0.046348     -0.163201
N      7.13277      2.81142      2.08805         0.128054     -0.046348     -0.163201
O      1.64066      9.69037      0.53439         0.027586     -0.024080     -0.048900
O      0.96858      1.46359     -0.00310        -0.063836     -0.018203     -0.046562
O      6.37634      0.61863      0.53439        -0.027586      0.024080     -0.048900
O      7.04842      8.84541     -0.00310         0.063836      0.018203     -0.046562
O      2.36784      4.53587      3.20061        -0.027586     -0.024080      0.048900
O      3.03992      6.61809      0.00310         0.063836     -0.018203      0.046562
O      5.64916      5.77313      3.20061         0.027586      0.024080      0.048900
O      4.97708      3.69091      0.00310        -0.063836      0.018203      0.046562
O      4.00850      0.00000      3.06239         0.000000      0.000000     -0.165684
O     -0.00000      5.15450      0.67261         0.000000      0.000000      0.165684
