16
# total energy = -104.67253306 eVC      2.42381      1.23889      2.05605         0.314979      1.627879      0.407853
C      2.91217      5.76889      0.99306        -0.314979      1.627879     -0.407853
C      1.13351      7.82111      4.64336        -0.314979     -1.627879     -0.407853
C      0.64515      3.29111      5.70634         0.314979     -1.627879      0.407853
N      0.05742      0.57993      0.25620        -2.481708      0.681928     -0.185312
N     -0.47794      1.66654      0.75800         1.405058     -0.990752      1.467035
N      1.72124      5.10993      3.09350         2.481708      0.681928      0.185312
N      2.25660      6.19654      2.59171        -1.405058     -0.990752     -1.467035
N     -0.05742      8.48007     -0.25620         2.481708     -0.681928      0.185312
N      0.47794      7.39346      6.24200        -1.405058      0.990752     -1.467035
N      1.83608      3.95007      3.60591        -2.481708     -0.681928     -0.185312
N      1.30072      2.86346      4.10770         1.405058      0.990752      1.467035
O      2.79417      2.15001      1.60007        -0.836844     -0.793466     -0.574438
O      2.54181      6.68001      1.44904         0.836844     -0.793466      0.574438
O      0.76315      6.90999      5.09933         0.836844      0.793466      0.574438
O      1.01551      2.37999      5.25037        -0.836844      0.793466     -0.574438
