12
# total energy = -76.48030848 eVC      2.39126      1.30750      0.84781        -0.107938      0.000000      0.028840
C      3.01874      3.92250      2.63281         0.107938     -0.000000      0.028840
C      8.42874      3.92250      2.72219         0.107938     -0.000000     -0.028840
C      7.80126      1.30750      0.93719        -0.107938      0.000000     -0.028840
N     -1.11488      1.30750     -0.12764        -0.046716      0.000000      0.018758
N      6.52488      3.92250      1.65736         0.046716      0.000000      0.018758
N      1.11488      3.92250      0.12764         0.046716      0.000000     -0.018758
N      4.29512      1.30750      1.91264        -0.046716      0.000000     -0.018758
O      3.23053      1.30750      1.40843         0.134684      0.000000     -0.003633
O      2.17947      3.92250      3.19343        -0.134684     -0.000000     -0.003633
O      7.58947      3.92250      2.16157        -0.134684     -0.000000      0.003633
O      8.64053      1.30750      0.37657         0.134684      0.000000      0.003633
