40
# total energy = -224.75332728 eVH      6.12671      1.30882      6.12840        -0.067715     -0.041044     -0.003233
H      4.92715      3.04539      4.94915        -0.028720     -0.026708     -0.023669
H      5.84788      4.23301      3.94537        -0.048819      0.054217     -0.004964
H      5.81919      4.37503      5.74318         0.028069      0.019733      0.123190
H      6.13171      1.34873      3.70399        -0.052307     -0.061553     -0.044010
H      4.41649      4.18258      1.77570         0.067715      0.041044     -0.003233
H      5.61605      2.44601      0.59645         0.028720      0.026708     -0.023669
H      4.69532      1.25839      8.29807         0.048819     -0.054217     -0.004964
H      4.72401      1.11637      1.39048        -0.028069     -0.019733      0.123190
H      4.41149      4.14267      8.05669         0.052307      0.061553     -0.044010
H      2.61231      4.18258      1.77570        -0.067715      0.041044     -0.003233
H      1.41275      2.44601      0.59645        -0.028720      0.026708     -0.023669
H      2.33348      1.25839      8.29807        -0.048819     -0.054217     -0.004964
H      2.30479      1.11637      1.39048         0.028069     -0.019733      0.123190
H      2.61731      4.14267      8.05669        -0.052307      0.061553     -0.044010
H      0.90209      1.30882      6.12840         0.067715     -0.041044     -0.003233
H      2.10165      3.04539      4.94915         0.028720     -0.026708     -0.023669
H      1.18092      4.23301      3.94537         0.048819      0.054217     -0.004964
H      1.20961      4.37503      5.74318        -0.028069      0.019733      0.123190
H      0.89709      1.34873      3.70399         0.052307     -0.061553     -0.044010
H     -0.00000      2.54816      7.04671         0.000000      0.231935      0.143851
H     -0.00000      2.66872      2.85439         0.000000     -0.131182      0.004626
H      3.51440      2.94324      2.69401         0.000000     -0.231935      0.143851
H      3.51440      2.82268      7.20709         0.000000      0.131182      0.004626
C      5.81113      3.68807      4.89478        -0.007792     -0.044020      0.130351
C      4.73207      1.80333      0.54208         0.007792      0.044020      0.130351
C      2.29673      1.80333      0.54208        -0.007792      0.044020      0.130351
C      1.21767      3.68807      4.89478         0.007792     -0.044020      0.130351
C     -0.00000      4.80713      0.62731         0.000000     -0.030793     -0.228530
C     -0.00000      1.92681      6.15325         0.000000      0.070552     -0.120355
C     -0.00000      1.97205      3.70557         0.000000     -0.024120     -0.062868
C      3.51440      0.68427      4.98001         0.000000      0.030793     -0.228530
C      3.51440      3.56459      1.80055         0.000000     -0.070552     -0.120355
C      3.51440      3.51935     -0.64713         0.000000      0.024120     -0.062868
N     -0.00000      4.81225      1.82898         0.000000     -0.062325     -0.039917
N     -0.00000      2.81391      4.94598         0.000000      0.070393     -0.266725
N      3.51440      0.67915      6.18168         0.000000      0.062325     -0.039917
N      3.51440      2.67749      0.59328         0.000000     -0.070393     -0.266725
O     -0.00000      4.79205      8.09852         0.000000     -0.005591      0.214590
O      3.51440      0.69935      3.74582         0.000000      0.005591      0.214590
