16
# total energy = -98.41239899 eVC      2.50115      0.75351      1.87160         0.641960      3.202271     -1.184330
C      2.83484      5.28351      1.17751        -0.641960      3.202271      1.184330
C      1.05618      8.30649      4.82781        -0.641960     -3.202271      1.184330
C      0.72248      3.77649      5.52189         0.641960     -3.202271     -1.184330
N     -0.05427      0.60114     -0.01102         1.137284      0.801922     -0.926214
N     -0.15149      1.84227      0.54033        -0.240455     -0.144457     -0.795584
N      1.83293      5.13114      3.36072        -1.137284      0.801922      0.926214
N      1.93015      6.37227      2.80938         0.240455     -0.144457      0.795584
N      0.05427      8.45886      0.01102        -1.137284     -0.801922      0.926214
N      0.15149      7.21773      6.45967         0.240455      0.144457      0.795584
N      1.72439      3.92886      3.33868         1.137284     -0.801922     -0.926214
N      1.62718      2.68773      3.89003        -0.240455      0.144457     -0.795584
O      2.82284      1.91253      1.29204        -1.755393     -0.924095      4.148851
O      2.51315      6.44253      1.75707         1.755393     -0.924095     -4.148851
O      0.73449      7.14747      5.40737         1.755393      0.924095     -4.148851
O      1.04418      2.61747      4.94233        -1.755393      0.924095      4.148851
