56
# total energy = -352.77044574 eVH      5.14786      2.27953      4.07068         0.072219      0.210040     -0.362201
H      6.57368      1.99360      5.15023        -0.181853      0.033305     -0.415490
H      3.07901      2.00059      4.83931         0.326415     -0.257134      0.812624
H      2.77028      1.28660      6.45086         0.472996      0.275782     -0.548251
H      5.23348      5.55528      1.55550        -0.072219      0.210040      0.362201
H      3.80766      5.26935      0.47594         0.181853      0.033305      0.415490
H      0.38144      5.27634      0.79411        -0.326415     -0.257134     -0.812624
H      0.69017      4.56235     10.45666        -0.472996      0.275782      0.548251
H      1.77304      4.27197      7.19617        -0.072219     -0.210040      0.362201
H      0.34721      4.55790      6.11662         0.181853     -0.033305      0.415490
H      3.84189      4.55091      6.42754        -0.326415      0.257134     -0.812624
H      4.15062      5.26490      4.81599        -0.472996     -0.275782      0.548251
H      1.68741      0.99622      9.71135         0.072219     -0.210040     -0.362201
H      3.11324      1.28215     10.79091        -0.181853     -0.033305     -0.415490
H      6.53945      1.27516     10.47274         0.326415      0.257134      0.812624
H      6.23073      1.98915      0.81019         0.472996     -0.275782     -0.548251
C      5.32869      1.09477      7.21268        -0.746478      0.302236     -0.928909
C      4.75288      1.56150      5.95037         1.193704      0.570047     -1.282345
C      5.05265      4.37052      9.68760         0.746478      0.302236      0.928909
C      5.62846      4.83725     10.94991        -1.193704      0.570047      1.282345
C      1.59220      5.45673      4.05418         0.746478     -0.302236      0.928909
C      2.16801      4.99000      5.31648        -1.193704     -0.570047      1.282345
C      1.86825      2.18098      1.57925        -0.746478     -0.302236     -0.928909
C      1.29243      1.71425      0.31695         1.193704     -0.570047     -1.282345
N      6.69426      0.94285      7.42083        -0.250673     -0.013555      0.161820
N      4.44156      0.83239      8.27805         0.724085      0.024992      0.114975
N      5.57087      1.96895      4.93650        -0.805487     -0.746081      1.896507
N      3.44526      1.67474      5.76319        -0.973758     -0.138049     -0.177041
N      3.68709      4.21860      9.47945         0.250673     -0.013555     -0.161820
N      5.93978      4.10814      8.62222        -0.724085      0.024992     -0.114975
N      4.81047      5.24470      0.68968         0.805487     -0.746081     -1.896507
N      0.01519      4.95049     11.14434         0.973758     -0.138049      0.177041
N      0.22664      5.60865      3.84602         0.250673      0.013555     -0.161820
N      2.47934      5.71911      2.98880        -0.724085     -0.024992     -0.114975
N      1.35003      4.58255      6.33036         0.805487      0.746081     -1.896507
N      3.47564      4.87676      5.50366         0.973758      0.138049      0.177041
N      3.23381      2.33290      1.78740        -0.250673      0.013555      0.161820
N      0.98111      2.44336      2.64463         0.724085     -0.024992      0.114975
N      2.11042      1.30680     10.57717        -0.805487      0.746081      1.896507
N     -0.01519      1.60101      0.12976        -0.973758      0.138049     -0.177041
O      0.16044      0.37433      8.47500         0.472478     -0.096860      0.209654
O      0.57565      1.32319      6.53297         0.271280     -0.012886      0.055703
O      3.30934      0.37099      8.02808        -0.321025     -0.065669      0.066332
O      4.82301      1.08773      9.44169        -0.237981     -0.049153      0.354805
O      3.30001      3.65008      8.43252        -0.472478     -0.096860     -0.209654
O      2.88480      4.59894     10.37456        -0.271280     -0.012886     -0.055703
O      0.15111      3.64674      8.87945         0.321025     -0.065669     -0.066332
O      5.55834      4.36348      7.45859         0.237981     -0.049153     -0.354805
O      6.76046      6.17717      2.79185        -0.472478      0.096860     -0.209654
O      6.34524      5.22831      4.73388        -0.271280      0.012886     -0.055703
O      3.61156      6.18051      3.23877         0.321025      0.065669     -0.066332
O      2.09789      5.46377      1.82516         0.237981      0.049153     -0.354805
O      3.62088      2.90142      2.83433         0.472478      0.096860      0.209654
O      4.03610      1.95256      0.89229         0.271280      0.012886      0.055703
O      6.76979      2.90476      2.38740        -0.321025      0.065669      0.066332
O      1.36256      2.18802      3.80826        -0.237981      0.049153      0.354805
