12
# total energy = -76.48781395 eVC      2.37477      1.30750      0.86972        -0.114109      0.000000     -0.024255
C      3.03523      3.92250      2.65472         0.114109      0.000000     -0.024255
C      8.44523      3.92250      2.70028         0.114109      0.000000      0.024255
C      7.78477      1.30750      0.91528        -0.114109      0.000000      0.024255
N     -1.11404      1.30750     -0.12689        -0.179308      0.000000      0.135958
N      6.52404      3.92250      1.65811         0.179308      0.000000      0.135958
N      1.11404      3.92250      0.12689         0.179308      0.000000     -0.135958
N      4.29596      1.30750      1.91189        -0.179308      0.000000     -0.135958
O      3.23891      1.30750      1.38950         0.266175      0.000000      0.166700
O      2.17109      3.92250      3.17450        -0.266175     -0.000000      0.166700
O      7.58109      3.92250      2.18050        -0.266175     -0.000000     -0.166700
O      8.64891      1.30750      0.39550         0.266175      0.000000     -0.166700
