16
# total energy = -97.34768102 eVH      1.44713      4.27813      1.37479         0.046927      0.046927     -0.026047
H      0.80110      3.63210     -0.13312         0.008629      0.008629     -0.052037
H      4.21487      1.38387      1.37479        -0.046927     -0.046927     -0.026047
H      4.86090      2.02990     -0.13312        -0.008629     -0.008629     -0.052037
H      4.27813      4.21487      3.34121         0.046927     -0.046927      0.026047
H      3.63210      4.86090      0.13312         0.008629     -0.008629      0.052037
H      1.38387      1.44713      3.34121        -0.046927      0.046927      0.026047
H      2.02990      0.80110      0.13312        -0.008629      0.008629      0.052037
C     -0.00000      2.83100      1.59106         0.000000      0.000000      0.126726
C      2.83100      0.00000      3.12494        -0.000000      0.000000     -0.126726
N      0.81480      3.64580      0.88506        -0.014467     -0.014467      0.029075
N      4.84720      2.01620      0.88506         0.014467      0.014467      0.029075
N      3.64580      4.84720      3.83094        -0.014467      0.014467     -0.029075
N      2.01620      0.81480      3.83094         0.014467     -0.014467     -0.029075
O     -0.00000      2.83100      2.86780        -0.000000      0.000000     -0.121992
O      2.83100      0.00000      1.84820         0.000000      0.000000      0.121992
