16
# total energy = -110.02979865 eVC      2.29294      1.86562      2.51157        -0.159831      0.461910      0.260448
C      3.04304      6.39562      0.53754         0.159831      0.461910     -0.260448
C      1.26438      7.19438      4.18783         0.159831     -0.461910     -0.260448
C      0.51428      2.66438      6.16187        -0.159831     -0.461910      0.260448
N     -0.24295      0.40556      0.42961         0.491574      0.094332     -0.119058
N     -0.52382      1.40465      1.17369         0.050797     -0.960347     -0.845422
N      2.02161      4.93556      2.92009        -0.491574      0.094332      0.119058
N      2.30248      5.93465      2.17602        -0.050797     -0.960347      0.845422
N      0.24295      8.65444     -0.42961        -0.491574     -0.094332      0.119058
N      0.52382      7.65535      5.82631        -0.050797      0.960347      0.845422
N      1.53571      4.12444      3.77932         0.491574     -0.094332     -0.119058
N      1.25484      3.12535      4.52339         0.050797      0.960347     -0.845422
O      2.68108      2.28238      1.64933        -0.266727      0.697829      0.961813
O      2.65490      6.81238      1.39978         0.266727      0.697829     -0.961813
O      0.87624      6.77762      5.05008         0.266727     -0.697829     -0.961813
O      0.90242      2.24762      5.29963        -0.266727     -0.697829      0.961813
