16
# total energy = -101.41332400 eVC      2.52701      0.90473      1.82368         0.156985      1.229605     -0.326699
C      2.80897      5.43473      1.22543        -0.156985      1.229605      0.326699
C      1.03031      8.15527      4.87573        -0.156985     -1.229605      0.326699
C      0.74835      3.62527      5.47397         0.156985     -1.229605     -0.326699
N     -0.01050      0.61992     -0.05917         0.286905      0.127969      0.578304
N     -0.18443      1.84105      0.55833        -2.466304     -0.199228      3.953991
N      1.78916      5.14992      3.40887        -0.286905      0.127969     -0.578304
N      1.96309      6.37105      2.79138         2.466304     -0.199228     -3.953991
N      0.01050      8.44008      0.05917        -0.286905     -0.127969     -0.578304
N      0.18443      7.21895      6.44167         2.466304      0.199228     -3.953991
N      1.76816      3.91008      3.29054         0.286905     -0.127969      0.578304
N      1.59423      2.68895      3.90803        -2.466304      0.199228      3.953991
O      2.76994      1.87416      1.42767         1.674283     -0.226756     -2.783176
O      2.56605      6.40416      1.62144        -1.674283     -0.226756      2.783176
O      0.78739      7.18584      5.27174        -1.674283      0.226756      2.783176
O      0.99127      2.65584      5.07797         1.674283      0.226756     -2.783176
