16
# total energy = -95.77061666 eVC      2.51865      0.70601      1.84000         0.814018      3.519924     -1.570929
C      2.81733      5.23601      1.20911        -0.814018      3.519924      1.570929
C      1.03867      8.35399      4.85941        -0.814018     -3.519924      1.570929
C      0.73999      3.82399      5.49030         0.814018     -3.519924     -1.570929
N     -0.02388      0.66679      0.03678         1.166769     -9.018526     -2.325685
N     -0.12916      1.84301      0.44991        -2.425177      2.983601      4.906877
N      1.80255      5.19679      3.31292        -1.166769     -9.018526      2.325685
N      1.90782      6.37301      2.89979         2.425177      2.983601     -4.906877
N      0.02388      8.39321     -0.03678        -1.166769      9.018526      2.325685
N      0.12916      7.21699      6.55009         2.425177     -2.983601     -4.906877
N      1.75478      3.86321      3.38648         1.166769      9.018526     -2.325685
N      1.64950      2.68699      3.79961        -2.425177     -2.983601      4.906877
O      2.78796      1.87683      1.35760         0.190723     -1.246984      0.026168
O      2.54803      6.40683      1.69151        -0.190723     -1.246984     -0.026168
O      0.76937      7.18317      5.34181        -0.190723      1.246984     -0.026168
O      1.00930      2.65317      5.00789         0.190723      1.246984      0.026168
