12
# total energy = -41.67889505 eVC      1.96693      1.30750      0.83264         1.165089     -0.000000      0.427306
C      3.44307      3.92250      2.61764        -1.165089     -0.000000      0.427306
C      8.85307      3.92250      2.73736        -1.165089     -0.000000     -0.427306
C      7.37693      1.30750      0.95236         1.165089     -0.000000     -0.427306
N      0.30189      1.30750      0.24359        -0.470866     -0.000000     -0.018309
N      5.10811      3.92250      2.02859         0.470866     -0.000000     -0.018309
N     10.51811      3.92250      3.32641         0.470866     -0.000000      0.018309
N      5.71189      1.30750      1.54141        -0.470866     -0.000000      0.018309
O      3.07503      1.30750      1.24439        -1.112597      0.000000     -0.540770
O      2.33497      3.92250      3.02939         1.112597     -0.000000     -0.540770
O      7.74497      3.92250      2.32561         1.112597      0.000000      0.540770
O      8.48503      1.30750      0.54061        -1.112597      0.000000      0.540770
