44
# total energy = -297.85156121 eVH      8.33543      8.47653      1.88238         1.171922     -1.165919      2.275224
H      8.39696      8.99912      0.28900         1.265306      0.273876     -2.201866
H      2.43510      5.53962      4.00172         1.025602      1.194991     -0.251825
H      1.25572      4.47553      3.62503        -2.203657     -1.339743     -1.900823
H      0.72782      1.45264      0.60777        -1.171922      1.165919     -2.275224
H      0.66630      0.93005      2.20115        -1.265306     -0.273876      2.201866
H      6.62815      4.38955     -1.51157        -1.025602     -1.194991      0.251825
H      7.80753      5.45364     -1.13487         2.203657      1.339743      1.900823
C      6.76749      1.55815      2.38242        -2.167226      0.839240      0.488895
C      2.01252      4.26112      5.40909         0.409487     -1.904891      3.770669
C      2.29577      8.37103      0.10773         2.167226     -0.839240     -0.488895
C      7.05074      5.66805     -2.91894        -0.409487      1.904891     -3.770669
N      6.00220      2.19911      1.50380        -0.393953      0.320394     -0.336750
N      7.90112      8.87361      1.11285         1.186702     -0.683892     -0.630703
N      6.48056      2.39032      0.25770        -0.155093     -0.036644      0.282875
N      6.24057      1.42920      3.65881         0.414961     -0.167065      0.051320
N      5.12347      1.91425      3.78440        -3.745847      1.340822      1.362557
N      4.07366      2.31504      4.08852         2.350730     -0.900654     -0.703372
N      1.33044      3.27357      5.98014        -0.251095     -0.632653      0.541890
N      1.86383      4.78096      4.29924         0.750772      2.972828     -3.386120
N      0.32442      2.70327      5.28176         0.262516      0.075147      0.226200
N      3.03189      4.81894     -0.96380         0.161832      0.221400     -0.391388
N      3.06558      4.39200      0.18524         0.772285     -0.839356      3.921814
N      3.21791      4.09880      1.29943        -0.349870      0.648684     -2.430375
N      3.06105      7.73006      0.98635         0.393953     -0.320394      0.336750
N      1.16214      1.05556      1.37730        -1.186702      0.683892      0.630703
N      2.58269      7.53886      2.23245         0.155093      0.036644     -0.282875
N      2.82269      8.49997     -1.16866        -0.414961      0.167065     -0.051320
N      3.93978      8.01492     -1.29424         3.745847     -1.340822     -1.362557
N      4.98959      7.61413     -1.59837        -2.350730      0.900654      0.703372
N      7.73282      6.65560     -3.48999         0.251095      0.632653     -0.541890
N      7.19943      5.14821     -1.80909        -0.750772     -2.972828      3.386120
N      8.73884      7.22590     -2.79160        -0.262516     -0.075147     -0.226200
N      6.03136      5.11023      3.45395        -0.161832     -0.221400      0.391388
N      5.99767      5.53717      2.30491        -0.772285      0.839356     -3.921814
N      5.84534      5.83038      1.19072         0.349870     -0.648684      2.430375
O      5.69471      2.97081     -0.51613        -0.520560      0.502802     -0.513826
O      7.60999      2.02893     -0.11620         0.702117     -0.242263     -0.115917
O      8.73151      3.92557      2.41648        -0.376037     -0.612365      0.601878
O      0.05909      2.99079      4.09942        -0.117910      0.193896     -0.784784
O      3.36855      6.95836      3.00628         0.520560     -0.502802      0.513826
O      1.45326      7.90025      2.60635        -0.702117      0.242263      0.115917
O      0.33174      6.00360      0.07367         0.376037      0.612365     -0.601878
O      9.00417      6.93838     -1.60927         0.117910     -0.193896      0.784784
