40
# total energy = -224.10887463 eVH      6.14983      1.27312      6.09609        -0.349765      0.095368      0.324274
H      4.92044      3.03275      4.88869         0.043564      0.192509      0.534395
H      5.83650      4.19157      3.91186         0.109659      0.084492      0.683158
H      5.86297      4.40251      5.75379        -0.459261     -0.169522     -0.143596
H      6.07366      1.38654      3.72155         0.866109     -0.033441     -0.166333
H      4.39337      4.21828      1.74339         0.349765     -0.095368      0.324274
H      5.62276      2.45865      0.53599        -0.043564     -0.192509      0.534395
H      4.70670      1.29983      8.26456        -0.109659     -0.084492      0.683158
H      4.68023      1.08889      1.40109         0.459261      0.169522     -0.143596
H      4.46954      4.10486      8.07425        -0.866109      0.033441     -0.166333
H      2.63543      4.21828      1.74339        -0.349765     -0.095368      0.324274
H      1.40604      2.45865      0.53599         0.043564     -0.192509      0.534395
H      2.32210      1.29983      8.26456         0.109659     -0.084492      0.683158
H      2.34857      1.08889      1.40109        -0.459261      0.169522     -0.143596
H      2.55926      4.10486      8.07425         0.866109      0.033441     -0.166333
H      0.87897      1.27312      6.09609         0.349765      0.095368      0.324274
H      2.10836      3.03275      4.88869        -0.043564      0.192509      0.534395
H      1.19230      4.19157      3.91186        -0.109659      0.084492      0.683158
H      1.16583      4.40251      5.75379         0.459261     -0.169522     -0.143596
H      0.95514      1.38654      3.72155        -0.866109     -0.033441     -0.166333
H     -0.00000      2.57092      7.07387        -0.000000     -0.442627     -0.167868
H     -0.00000      2.69125      2.90558        -0.000000      0.146475     -0.575897
H      3.51440      2.92048      2.72117        -0.000000      0.442627     -0.167868
H      3.51440      2.80015      7.25828        -0.000000     -0.146475     -0.575897
C      5.79715      3.69678      4.91313         0.559042     -0.191680     -0.672757
C      4.74605      1.79462      0.56043        -0.559042      0.191680     -0.672757
C      2.28275      1.79462      0.56043         0.559042      0.191680     -0.672757
C      1.23165      3.69678      4.91313        -0.559042     -0.191680     -0.672757
C     -0.00000      4.81662      0.61086        -0.000000      0.019929      4.578501
C     -0.00000      1.91272      6.18495        -0.000000      0.604413     -0.470501
C     -0.00000      1.96459      3.70801        -0.000000     -0.187389      1.112240
C      3.51440      0.67478      4.96356        -0.000000     -0.019929      4.578501
C      3.51440      3.57868      1.83225        -0.000000     -0.604413     -0.470501
C      3.51440      3.52681     -0.64469        -0.000000      0.187389      1.112240
N     -0.00000      4.82610      1.82482        -0.000000     -0.087430     -0.810755
N     -0.00000      2.81444      4.98020        -0.000000     -0.026388     -0.976142
N      3.51440      0.66530      6.17752        -0.000000      0.087430     -0.810755
N      3.51440      2.67696      0.62750        -0.000000      0.026388     -0.976142
O     -0.00000      4.79660      8.13195        -0.000000     -0.084660     -3.807860
O      3.51440      0.69480      3.77925        -0.000000      0.084660     -3.807860
