16
# total energy = -93.72221316 eVC      2.56163      0.66993      1.76129         0.454970      2.919721     -0.755260
C      2.77436      5.19993      1.28782        -0.454970      2.919721      0.755260
C      0.99570      8.39007      4.93811        -0.454970     -2.919721      0.755260
C      0.78297      3.86007      5.41159         0.454970     -2.919721     -0.755260
N      0.05874      0.63920      0.08033        -0.737165     -2.354120     -0.137294
N     -0.11519      1.88523      0.33649        -1.854870      1.267709      4.216263
N      1.71992      5.16920      3.26937         0.737165     -2.354120      0.137294
N      1.89386      6.41523      3.01322         1.854870      1.267709     -4.216263
N     -0.05874      8.42080     -0.08033         0.737165      2.354120      0.137294
N      0.11519      7.17477      6.66351         1.854870     -1.267709     -4.216263
N      1.83740      3.89080      3.43004        -0.737165      2.354120     -0.137294
N      1.66347      2.64477      3.68619        -1.854870     -1.267709      4.216263
O      2.71441      1.80132      1.50584         1.300978     -1.869828     -2.555699
O      2.62157      6.33132      1.54327        -1.300978     -1.869828      2.555699
O      0.84291      7.25868      5.19356        -1.300978      1.869828      2.555699
O      0.93575      2.72868      5.15614         1.300978      1.869828     -2.555699
