18
# total energy = -101.80013539 eVH      0.63834      4.23863      9.04601         0.005999      0.001657     -0.008420
H      0.56625      1.24932      0.19173        -0.004399     -0.002165      0.019154
H      3.26255      0.50086      8.13841         0.000985      0.013644     -0.029342
H      3.17091      0.17955      0.71004         0.002537     -0.007525     -0.030310
H      1.86817      2.57350      6.99663        -0.006362      0.012277     -0.007902
H      0.63834      0.44037      4.49001         0.005999     -0.001657     -0.008420
H      0.56625      3.42968      4.74773        -0.004399      0.002165      0.019154
H      3.26255      4.17814      3.58241         0.000985     -0.013644     -0.029342
H      3.17091      4.49945      5.26604         0.002537      0.007525     -0.030310
H      1.86817      2.10550      2.44063        -0.006362     -0.012277     -0.007902
C      1.89938      1.74711      6.25017        -0.011975      0.019963     -0.011703
C      1.89938      2.93189      1.69417        -0.011975     -0.019963     -0.011703
N      0.00279      0.38402     -0.01172        -0.002662      0.003822      0.037387
N      0.00279      4.29498      4.54428        -0.002662     -0.003822      0.037387
O      1.45624      1.98644      5.08470         0.016454     -0.026447      0.025941
O      2.37790      0.63659      6.64217        -0.000577     -0.011750      0.005194
O      1.45624      2.69256      0.52870         0.016454      0.026447      0.025941
O      2.37790      4.04241      2.08617        -0.000577      0.011750      0.005194
