36
# total energy = -214.69496625 eVH      0.63468      2.47311      2.45257         5.433139     -4.291330      2.931761
H      0.37880      3.51741      1.40343         2.787212      3.673229     -4.378200
H      4.49995      7.72611      1.07773         5.433139     -4.291330      2.931761
H      4.24407      8.77041      0.02859         2.787212      3.673229     -4.378200
H      7.09586      2.47311     -1.05625        -5.433139     -4.291330     -2.931761
H      7.35175      3.51741     -0.00711        -2.787212      3.673229      4.378200
H      3.23059      7.72611      0.31859        -5.433139     -4.291330     -2.931761
H      3.48647      8.77041      1.36773        -2.787212      3.673229      4.378200
H      7.09586      8.03289     -1.05625        -5.433139      4.291330     -2.931761
H      7.35175      6.98859     -0.00711        -2.787212     -3.673229      4.378200
H      3.23059      2.77989      0.31859        -5.433139      4.291330     -2.931761
H      3.48647      1.73559      1.36773        -2.787212     -3.673229      4.378200
H      0.63468      8.03289      2.45257         5.433139      4.291330      2.931761
H      0.37880      6.98859      1.40343         2.787212     -3.673229     -4.378200
H      4.49995      2.77989      1.07773         5.433139      4.291330      2.931761
H      4.24407      1.73559      0.02859         2.787212     -3.673229     -4.378200
C      2.15002      5.25300     -0.19011         0.897868      0.000000     -0.618157
C      3.36619      5.25300     -1.04185        -1.854382      0.000000      1.236321
C      6.01529      0.00000     -1.56495         0.897868      0.000000     -0.618157
C      7.23146      0.00000     -2.41669        -1.854382      0.000000      1.236321
C      5.58052      5.25300      1.58642        -0.897868      0.000000      0.618157
C      4.36435      5.25300      2.43816         1.854382      0.000000     -1.236321
C      1.71525      0.00000      2.96126        -0.897868      0.000000      0.618157
C      0.49908      0.00000      3.81301         1.854382      0.000000     -1.236321
N      0.00000      3.00356      2.07300        -0.000000      1.265031      0.000000
N      3.86527      8.25656      0.69816        -0.000000      1.265031      0.000000
N      0.00000      7.50244      2.07300        -0.000000     -1.265031      0.000000
N      3.86527      2.24944      0.69816        -0.000000     -1.265031      0.000000
O      1.70250      6.37998      0.12832        -0.358036      0.901515      0.259851
O      5.56777      1.12698     -1.24652        -0.358036      0.901515      0.259851
O      6.02804      6.37998      1.26800         0.358036      0.901515     -0.259851
O      2.16277      1.12698      2.64284         0.358036      0.901515     -0.259851
O      6.02804      4.12602      1.26800         0.358036     -0.901515     -0.259851
O      2.16277      9.37902      2.64284         0.358036     -0.901515     -0.259851
O      1.70250      4.12602      0.12832        -0.358036     -0.901515      0.259851
O      5.56777      9.37902     -1.24652        -0.358036     -0.901515      0.259851
