56
# total energy = -353.18303839 eVH      5.17201      2.29416      4.06314        -0.062827      0.010439      0.025490
H      6.56042      1.98523      5.10334         0.015152     -0.040857     -0.025180
H      3.07649      1.99837      4.85815         0.011291     -0.026918      0.075159
H      2.78197      1.28611      6.43558        -0.036393     -0.039506      0.032614
H      5.20933      5.56991      1.56304         0.062827      0.010439     -0.025490
H      3.82092      5.26098      0.52284        -0.015152     -0.040857      0.025180
H      0.38395      5.27412      0.77527        -0.011291     -0.026918     -0.075159
H      0.67848      4.56186     10.47195         0.036393     -0.039506     -0.032614
H      1.74888      4.25734      7.20371         0.062827     -0.010439     -0.025490
H      0.36047      4.56627      6.16351        -0.015152      0.040857      0.025180
H      3.84440      4.55313      6.40870        -0.011291      0.026918     -0.075159
H      4.13893      5.26539      4.83127         0.036393      0.039506     -0.032614
H      1.71157      0.98159      9.70381        -0.062827     -0.010439      0.025490
H      3.09998      1.29052     10.74401         0.015152      0.040857     -0.025180
H      6.53694      1.27738     10.49158         0.011291      0.026918      0.075159
H      6.24242      1.98964      0.79491        -0.036393      0.039506      0.032614
C      5.31629      1.10312      7.19882        -0.050134      0.033263     -0.054190
C      4.75323      1.57086      5.93362         0.051424      0.000879     -0.034101
C      5.06505      4.37887      9.70146         0.050134      0.033263      0.054190
C      5.62811      4.84661     10.96666        -0.051424      0.000879      0.034101
C      1.60461      5.44838      4.06803         0.050134     -0.033263      0.054190
C      2.16766      4.98064      5.33323        -0.051424     -0.000879      0.034101
C      1.85584      2.17263      1.56540        -0.050134     -0.033263     -0.054190
C      1.29279      1.70489      0.30020         0.051424     -0.000879     -0.034101
N      6.69351      0.94614      7.42666        -0.022669      0.018938      0.026556
N      4.44980      0.83214      8.28466         0.036536     -0.017545     -0.016994
N      5.55239      1.96615      4.95347         0.045941      0.030938     -0.063290
N      3.43685      1.66408      5.75567         0.030597      0.025787     -0.079831
N      3.68784      4.22189      9.47362         0.022669      0.018938     -0.026556
N      5.93154      4.10789      8.61562        -0.036536     -0.017545      0.016994
N      4.82895      5.24190      0.67271        -0.045941      0.030938      0.063290
N      0.02359      4.93983     11.15185        -0.030597      0.025787      0.079831
N      0.22739      5.60536      3.84019         0.022669     -0.018938     -0.026556
N      2.47109      5.71936      2.98219        -0.036536      0.017545      0.016994
N      1.36850      4.58535      6.31338        -0.045941     -0.030938      0.063290
N      3.48404      4.88742      5.51118        -0.030597     -0.025787      0.079831
N      3.23306      2.32961      1.79324        -0.022669     -0.018938      0.026556
N      0.98936      2.44361      2.65123         0.036536      0.017545     -0.016994
N      2.09195      1.30960     10.59415         0.045941     -0.030938     -0.063290
N     -0.02359      1.61167      0.12225         0.030597     -0.025787     -0.079831
O      0.17631      0.37894      8.48064         0.000754      0.008898      0.033987
O      0.58699      1.32272      6.54536        -0.024607      0.010492     -0.002190
O      3.30497      0.37683      8.03894         0.006508      0.045800      0.001149
O      4.81360      1.07561      9.45937         0.005046     -0.024654      0.016821
O      3.28414      3.65469      8.42689        -0.000754      0.008898     -0.033987
O      2.87346      4.59847     10.36217         0.024607      0.010492      0.002190
O      0.15548      3.65258      8.86859        -0.006508      0.045800     -0.001149
O      5.56774      4.35136      7.44090        -0.005046     -0.024654     -0.016821
O      6.74459      6.17256      2.78621        -0.000754     -0.008898     -0.033987
O      6.33391      5.22878      4.72150         0.024607     -0.010492      0.002190
O      3.61592      6.17467      3.22791        -0.006508     -0.045800     -0.001149
O      2.10729      5.47589      1.80748        -0.005046      0.024654     -0.016821
O      3.63676      2.89681      2.83997         0.000754     -0.008898      0.033987
O      4.04744      1.95303      0.90468        -0.024607     -0.010492     -0.002190
O      6.76542      2.89892      2.39826         0.006508     -0.045800      0.001149
O      1.35315      2.20014      3.82595         0.005046      0.024654      0.016821
