12
# total energy = -68.44718060 eVC      2.49445      1.30750      0.98034       -19.961612     -0.000000     -5.488919
C      2.91555      3.92250      2.76534        19.961612     -0.000000     -5.488919
C      8.32555      3.92250      2.58966        19.961612     -0.000000      5.488919
C      7.90445      1.30750      0.80466       -19.961612     -0.000000      5.488919
N     -1.25695      1.30750     -0.24278        -2.960423     -0.000000      3.608793
N      6.66695      3.92250      1.54222         2.960423      0.000000      3.608793
N      1.25695      3.92250      0.24278         2.960423      0.000000     -3.608793
N      4.15305      1.30750      2.02778        -2.960423     -0.000000     -3.608793
O      3.26872      1.30750      1.17292        22.937746     -0.000000      9.097823
O      2.14128      3.92250      2.95792       -22.937746      0.000000      9.097823
O      7.55128      3.92250      2.39708       -22.937746      0.000000     -9.097823
O      8.67872      1.30750      0.61208        22.937746     -0.000000     -9.097823
