44
# total energy = -297.78926087 eVH      8.33870      8.47341      1.88842         0.898316     -0.930929      1.843817
H      8.40118      9.00011      0.28193         0.901589      0.210135     -1.670484
H      2.44321      5.54995      3.99832         0.497181      0.488077      0.035463
H      1.24911      4.47185      3.61851        -1.726461     -1.116768     -1.341707
H      0.72455      1.45576      0.60173        -0.898316      0.930929     -1.843817
H      0.66207      0.92906      2.20822        -0.901589     -0.210135      1.670484
H      6.62005      4.37922     -1.50817        -0.497181     -0.488077     -0.035463
H      7.81414      5.45732     -1.12836         1.726461      1.116768      1.341707
C      6.76661      1.55832      2.38307        -2.365284      0.945378      0.461170
C      2.01277      4.26079      5.41010         0.458543     -2.157755      4.252587
C      2.29664      8.37085      0.10709         2.365284     -0.945378     -0.461170
C      7.05049      5.66839     -2.91995        -0.458543      2.157755     -4.252587
N      6.00206      2.19922      1.50372        -0.427029      0.349298     -0.374572
N      7.89499      8.87522      1.11355         2.148079     -1.011517     -0.761199
N      6.48010      2.39032      0.25817        -0.104654     -0.044549      0.258755
N      6.24002      1.42945      3.65885         0.589542     -0.244077      0.050817
N      5.12687      1.91290      3.78364        -4.615968      1.671481      1.610055
N      4.07053      2.31622      4.08943         2.952883     -1.130237     -0.879757
N      1.33063      3.27366      5.98023        -0.323225     -0.742968      0.607358
N      1.86212      4.77482      4.30782         0.749459      3.824895     -4.921912
N      0.32482      2.70342      5.28206         0.249838      0.071399      0.216074
N      3.03192      4.81877     -0.96332         0.183011      0.291132     -0.545684
N      3.06527      4.39302      0.18181         0.898665     -1.070035      4.813594
N      3.21838      4.09796      1.30269        -0.439749      0.812070     -3.059058
N      3.06120      7.72995      0.98643         0.427029     -0.349298      0.374572
N      1.16826      1.05395      1.37660        -2.148079      1.011517      0.761199
N      2.58316      7.53885      2.23198         0.104654      0.044549     -0.258755
N      2.82324      8.49972     -1.16870        -0.589542      0.244077     -0.050817
N      3.93639      8.01627     -1.29349         4.615968     -1.671481     -1.610055
N      4.99272      7.61295     -1.59928        -2.952883      1.130237      0.879757
N      7.73262      6.65551     -3.49008         0.323225      0.742968     -0.607358
N      7.20113      5.15436     -1.81767        -0.749459     -3.824895      4.921912
N      8.73844      7.22576     -2.79191        -0.249838     -0.071399     -0.216074
N      6.03133      5.11040      3.45347        -0.183011     -0.291132      0.545684
N      5.99799      5.53615      2.30834        -0.898665      1.070035     -4.813594
N      5.84488      5.83121      1.18746         0.439749     -0.812070      3.059058
O      5.69380      2.97144     -0.51684        -0.459458      0.485859     -0.485000
O      7.61133      2.02842     -0.11641         0.605901     -0.202410     -0.103337
O      8.73083      3.92457      2.41741        -0.327782     -0.549040      0.548047
O      0.05899      2.99128      4.09809        -0.122809      0.147053     -0.700223
O      3.36946      6.95773      3.00699         0.459458     -0.485859      0.485000
O      1.45193      7.90075      2.60656        -0.605901      0.202410      0.103337
O      0.33242      6.00461      0.07274         0.327782      0.549040     -0.548047
O      9.00427      6.93789     -1.60794         0.122809     -0.147053      0.700223
