16
# total energy = -100.23041563 eVC      2.52237      0.88053      1.83224         0.370919      1.921341     -0.696939
C      2.81361      5.41053      1.21687        -0.370919      1.921341      0.696939
C      1.03495      8.17947      4.86717        -0.370919     -1.921341      0.696939
C      0.74371      3.64947      5.48254         0.370919     -1.921341     -0.696939
N     -0.01455      0.59360     -0.05858         0.049804      5.329973      0.717551
N     -0.16717      1.84356      0.53417        -3.002035     -0.614730      4.764527
N      1.79321      5.12360      3.40829        -0.049804      5.329973     -0.717551
N      1.94583      6.37356      2.81554         3.002035     -0.614730     -4.764527
N      0.01455      8.46640      0.05858        -0.049804     -5.329973     -0.717551
N      0.16717      7.21644      6.46583         3.002035      0.614730     -4.764527
N      1.76411      3.93640      3.29112         0.049804     -5.329973      0.717551
N      1.61149      2.68644      3.88387        -3.002035      0.614730      4.764527
O      2.76498      1.88499      1.43221         2.082928     -0.912138     -3.571223
O      2.57100      6.41499      1.61690        -2.082928     -0.912138      3.571223
O      0.79234      7.17501      5.26719        -2.082928      0.912138      3.571223
O      0.98632      2.64501      5.08251         2.082928      0.912138     -3.571223
