12
# total energy = -68.85633728 eVC      2.48040      1.30750      0.97647       -18.260736     -0.000000     -5.024158
C      2.92960      3.92250      2.76147        18.260736      0.000000     -5.024158
C      8.33960      3.92250      2.59353        18.260736      0.000000      5.024158
C      7.89040      1.30750      0.80853       -18.260736      0.000000      5.024158
N     -1.21643      1.30750     -0.22981        -4.318191     -0.000000      4.522323
N      6.62643      3.92250      1.55519         4.318191     -0.000000      4.522323
N      1.21643      3.92250      0.22981         4.318191     -0.000000     -4.522323
N      4.19357      1.30750      2.01481        -4.318191     -0.000000     -4.522323
O      3.26391      1.30750      1.17487        22.597653     -0.000000      9.546704
O      2.14609      3.92250      2.95987       -22.597653     -0.000000      9.546704
O      7.55609      3.92250      2.39513       -22.597653      0.000000     -9.546704
O      8.67391      1.30750      0.61013        22.597653      0.000000     -9.546704
