36
# total energy = -215.41846874 eVH      4.09919      2.35392      2.28333        -0.368977     -0.106400     -0.040772
H      4.20314      1.51294     -0.15640         0.876978      0.773946      1.585421
H      6.93298      1.00925      0.68543        -0.618031     -0.011835      1.945859
H      0.58550      0.65215      3.32495         2.416388     -1.064470      1.423210
H      6.47377      0.82180      4.29775         0.216692      0.026111     -0.495859
H      4.98773      1.64342      4.23946         0.106986      0.127846     -0.155094
H      4.09919      1.16208      9.46233        -0.368977      0.106400     -0.040772
H      4.20314      2.00306      7.02260         0.876978     -0.773946      1.585421
H      6.93298      2.50675      7.86443        -0.618031      0.011835      1.945859
H      0.58550      2.86385     10.50395         2.416388      1.064470      1.423210
H      6.47377      2.69420     11.47675         0.216692     -0.026111     -0.495859
H      4.98773      1.87258     11.41846         0.106986     -0.127846     -0.155094
C      5.80894      1.39904      2.42337         1.345419     -0.742357     -0.759555
C      5.80894      2.11696      9.60237         1.345419      0.742357     -0.759555
N      1.57322      3.43151      5.43104        -0.030409      0.099260      0.107370
N      1.44517      3.14370      6.77473         0.048291     -0.224097      0.850333
N      2.70340      3.02494      4.83115         0.789361     -0.452004      0.019023
N      4.76033      1.76880      1.76359        -3.789870      1.402146     -0.623973
N      6.83672      1.00860      1.75799         1.034413     -0.148873     -4.710207
N      5.82941      1.36735      3.71782        -1.050428      0.272209      3.395028
N      1.57322      0.08449     12.61004        -0.030409     -0.099260      0.107370
N      1.44517      0.37230     13.95373         0.048291      0.224097      0.850333
N      2.70340      0.49106     12.01015         0.789361      0.452004      0.019023
N      4.76033      1.74720      8.94259        -3.789870     -1.402146     -0.623973
N      6.83672      2.50740      8.93699         1.034413      0.148873     -4.710207
N      5.82941      2.14865     10.89682        -1.050428     -0.272209      3.395028
O      2.29212      2.60079      7.51339        -0.455329      0.234349     -0.439205
O      0.31792     -0.00815      7.19903        -0.030415      0.004459     -0.099921
O      3.66806      2.41660      5.39257        -0.316390      0.153926     -0.360424
O      2.73154      3.28742      3.60687        -0.023823      0.099685     -0.156269
O      4.82792      2.11813      0.43255        -0.150856     -0.578838     -1.484963
O      2.29212      0.91521      0.33439        -0.455329     -0.234349     -0.439205
O      0.31792      0.00815      0.02003        -0.030415     -0.004459     -0.099921
O      3.66806      1.09940     12.57157        -0.316390     -0.153926     -0.360424
O      2.73154      0.22858     10.78587        -0.023823     -0.099685     -0.156269
O      4.82792      1.39787      7.61155        -0.150856      0.578838     -1.484963
