16
# total energy = -34.32855476 eVH      1.50770      4.33870      1.43795        -2.036578     -2.036578      0.005171
H      0.79499      3.62599     -1.10118         1.936373      1.936373      2.554766
H      4.15430      1.32330      1.43795         2.036578      2.036578      0.005171
H      4.86701      2.03601     -1.10118        -1.936373     -1.936373      2.554766
H      4.33870      4.15430      3.27805        -2.036578      2.036578     -0.005171
H      3.62599      4.86701      1.10118         1.936373     -1.936373     -2.554766
H      1.32330      1.50770      3.27805         2.036578     -2.036578     -0.005171
H      2.03601      0.79499      1.10118        -1.936373      1.936373     -2.554766
C      0.00000      2.83100      1.61923         0.000000     -0.000000    -31.393807
C      2.83100      0.00000      3.09677         0.000000     -0.000000     31.393807
N      0.70744      3.53844      1.95429        30.570800     30.570800     -4.656999
N      4.95456      2.12356      1.95429       -30.570800    -30.570800     -4.656999
N      3.53844      4.95456      2.76171        30.570800    -30.570800      4.656999
N      2.12356      0.70744      2.76171       -30.570800     30.570800      4.656999
O      0.00000      2.83100      2.83121         0.000000     -0.000000     34.196370
O      2.83100      0.00000      1.88479         0.000000     -0.000000    -34.196370
