56
# total energy = -353.18903770 eVH      5.16811      2.29965      4.06109        -0.042141      0.007808      0.002820
H      6.56244      1.97851      5.09146         0.075523     -0.010576     -0.013843
H      3.07341      1.99765      4.86290         0.011956     -0.000425     -0.010657
H      2.78204      1.28256      6.43387         0.039115     -0.021362      0.028610
H      5.21323      5.57540      1.56509         0.042141      0.007808     -0.002820
H      3.81890      5.25426      0.53472        -0.075523     -0.010576      0.013843
H      0.38704      5.27340      0.77053        -0.011956     -0.000425      0.010657
H      0.67841      4.55831     10.47365        -0.039115     -0.021362     -0.028610
H      1.75279      4.25185      7.20576         0.042141     -0.007808     -0.002820
H      0.35845      4.57299      6.17539        -0.075523      0.010576      0.013843
H      3.84749      4.55385      6.40396        -0.011956      0.000425      0.010657
H      4.13886      5.26894      4.83298        -0.039115      0.021362     -0.028610
H      1.70766      0.97610      9.70177        -0.042141     -0.007808      0.002820
H      3.10199      1.29724     10.73214         0.075523      0.010576     -0.013843
H      6.53386      1.27810     10.49632         0.011956      0.000425     -0.010657
H      6.24249      1.99319      0.79320         0.039115      0.021362      0.028610
C      5.31522      1.10611      7.19791         0.041316     -0.004293      0.002223
C      4.75654      1.57149      5.92888         0.056256     -0.001309      0.019419
C      5.06612      4.38186      9.70237        -0.041316     -0.004293     -0.002223
C      5.62480      4.84724     10.97140        -0.056256     -0.001309     -0.019419
C      1.60568      5.44539      4.06894        -0.041316      0.004293     -0.002223
C      2.16435      4.98001      5.33797        -0.056256      0.001309     -0.019419
C      1.85477      2.16964      1.56448         0.041316      0.004293      0.002223
C      1.29609      1.70426      0.29545         0.056256      0.001309      0.019419
N      6.69270      0.94895      7.43005        -0.008835      0.015132     -0.032985
N      4.45156      0.83144      8.28521        -0.025890      0.032283     -0.008874
N      5.55505      1.96989      4.94770        -0.096590     -0.021497      0.017791
N      3.43989      1.66076      5.75485        -0.041498      0.016608     -0.045268
N      3.68864      4.22470      9.47023         0.008835      0.015132      0.032985
N      5.92978      4.10719      8.61507         0.025890      0.032283      0.008874
N      4.82630      5.24564      0.67848         0.096590     -0.021497     -0.017791
N      0.02056      4.93651     11.15267         0.041498      0.016608      0.045268
N      0.22819      5.60255      3.83681         0.008835     -0.015132      0.032985
N      2.46933      5.72006      2.98165         0.025890     -0.032283      0.008874
N      1.36585      4.58161      6.31915         0.096590      0.021497     -0.017791
N      3.48101      4.89074      5.51200         0.041498     -0.016608      0.045268
N      3.23226      2.32680      1.79662        -0.008835     -0.015132     -0.032985
N      0.99111      2.44431      2.65178        -0.025890     -0.032283     -0.008874
N      2.09460      1.30586     10.58837        -0.096590      0.021497      0.017791
N     -0.02056      1.61499      0.12143        -0.041498     -0.016608     -0.045268
O      0.17508      0.38180      8.48510        -0.000262      0.044091     -0.037262
O      0.58493      1.32490      6.54589        -0.029790     -0.019507      0.062652
O      3.30390      0.38275      8.03964         0.015405      0.023954     -0.004442
O      4.81513      1.07002      9.46230         0.011398     -0.027244     -0.048234
O      3.28537      3.65755      8.42242         0.000262      0.044091      0.037262
O      2.87552      4.60065     10.36164         0.029790     -0.019507     -0.062652
O      0.15654      3.65850      8.86788        -0.015405      0.023954      0.004442
O      5.56622      4.34577      7.43798        -0.011398     -0.027244      0.048234
O      6.74581      6.16970      2.78175         0.000262     -0.044091      0.037262
O      6.33597      5.22660      4.72096         0.029790      0.019507     -0.062652
O      3.61699      6.16875      3.22721        -0.015405     -0.023954      0.004442
O      2.10577      5.48148      1.80455        -0.011398      0.027244      0.048234
O      3.63553      2.89395      2.84443        -0.000262     -0.044091     -0.037262
O      4.04538      1.95085      0.90522        -0.029790      0.019507      0.062652
O      6.76435      2.89300      2.39897         0.015405     -0.023954     -0.004442
O      1.35468      2.20573      3.82887         0.011398      0.027244     -0.048234
