36
# total energy = -220.87402708 eVH      0.74087      2.40190      2.49199         0.072717     -0.017742     -0.065305
H      0.44436      3.58978      1.32901         0.026373     -0.084154      0.138811
H      4.60614      7.65490      1.11715         0.072717     -0.017742     -0.065305
H      4.30963      8.84278     -0.04583         0.026373     -0.084154      0.138811
H      6.98967      2.40190     -1.09567        -0.072717     -0.017742      0.065305
H      7.28618      3.58978      0.06730        -0.026373     -0.084154     -0.138811
H      3.12440      7.65490      0.27917        -0.072717     -0.017742      0.065305
H      3.42091      8.84278      1.44214        -0.026373     -0.084154     -0.138811
H      6.98967      8.10410     -1.09567        -0.072717      0.017742      0.065305
H      7.28618      6.91622      0.06730        -0.026373      0.084154     -0.138811
H      3.12440      2.85110      0.27917        -0.072717      0.017742      0.065305
H      3.42091      1.66322      1.44214        -0.026373      0.084154     -0.138811
H      0.74087      8.10410      2.49199         0.072717      0.017742     -0.065305
H      0.44436      6.91622      1.32901         0.026373      0.084154      0.138811
H      4.60614      2.85110      1.11715         0.072717      0.017742     -0.065305
H      4.30963      1.66322     -0.04583         0.026373      0.084154      0.138811
C      2.15985      5.25300     -0.19554         0.102863      0.000000     -0.053761
C      3.36172      5.25300     -1.03884        -0.699967      0.000000      0.472591
C      6.02512      0.00000     -1.57038         0.102863      0.000000     -0.053761
C      7.22699      0.00000     -2.41369        -0.699967      0.000000      0.472591
C      5.57069      5.25300      1.59186        -0.102863      0.000000      0.053761
C      4.36882      5.25300      2.43516         0.699967      0.000000     -0.472591
C      1.70542      0.00000      2.96670        -0.102863      0.000000      0.053761
C      0.50355      0.00000      3.81000         0.699967      0.000000     -0.472591
N     -0.00000      2.99983      2.07300         0.000000      0.178787     -0.000000
N      3.86527      8.25283      0.69816         0.000000      0.178787     -0.000000
N     -0.00000      7.50617      2.07300         0.000000     -0.178787     -0.000000
N      3.86527      2.25317      0.69816         0.000000     -0.178787     -0.000000
O      1.70107      6.39054      0.13083         0.026310      0.020722      0.014408
O      5.56634      1.13754     -1.24401         0.026310      0.020722      0.014408
O      6.02948      6.39054      1.26548        -0.026310      0.020722     -0.014408
O      2.16420      1.13754      2.64033        -0.026310      0.020722     -0.014408
O      6.02948      4.11546      1.26548        -0.026310     -0.020722     -0.014408
O      2.16420      9.36846      2.64033        -0.026310     -0.020722     -0.014408
O      1.70107      4.11546      0.13083         0.026310     -0.020722      0.014408
O      5.56634      9.36846     -1.24401         0.026310     -0.020722      0.014408
