12
# total energy = -75.87366885 eVC      2.38532      1.30750      0.94444        -0.758714      0.000000     -0.590201
C      3.02468      3.92250      2.72944         0.758714      0.000000     -0.590201
C      8.43468      3.92250      2.62556         0.758714      0.000000      0.590201
C      7.79532      1.30750      0.84056        -0.758714      0.000000      0.590201
N     -1.20618      1.30750     -0.23467         0.024696      0.000000      0.642843
N      6.61618      3.92250      1.55033        -0.024696     -0.000000      0.642843
N      1.20618      3.92250      0.23467        -0.024696      0.000000     -0.642843
N      4.20382      1.30750      2.01967         0.024696      0.000000     -0.642843
O      3.34565      1.30750      1.20378         0.690058      0.000000      1.233535
O      2.06435      3.92250      2.98878        -0.690058      0.000000      1.233535
O      7.47435      3.92250      2.36622        -0.690058     -0.000000     -1.233535
O      8.75565      1.30750      0.58122         0.690058     -0.000000     -1.233535
