4
# total energy = -11.77473013 eVAu      0.00000      0.00000      0.00000        -0.000000      0.000000      0.000000
Au      0.00000      2.04250      2.04250         0.000000      0.000000      0.000000
Au      2.04250      0.00000      2.04250        -0.000000     -0.000000     -0.000000
Au      2.04250      2.04250      0.00000        -0.000000     -0.000000     -0.000000
