30
# total energy = -132.00215583 eVH      0.76172      2.49598      4.79258        -0.190265     -0.546023     -0.621547
H      0.73329      2.44647      2.00678        -0.335247      1.194235     -0.337230
H      0.23686     -0.09562      0.58425        -2.741827     -4.216881     -2.373721
H      2.73128      9.15738     -0.47686         0.190265     -0.546023      0.621547
H      2.75971      9.10787      2.30894         0.335247      1.194235      0.337230
H     -0.23686      6.56578     -0.58425         2.741827     -4.216881      2.373721
H      2.73128     10.82682     -0.47686         0.190265      0.546023      0.621547
H      2.75971     10.87633      2.30894         0.335247     -1.194235      0.337230
H     -0.23686      0.09562     -0.58425         2.741827      4.216881      2.373721
H      0.76172      4.16542      4.79258        -0.190265      0.546023     -0.621547
H      0.73329      4.21493      2.00678        -0.335247     -1.194235     -0.337230
H      0.23686      6.75702      0.58425        -2.741827      4.216881     -2.373721
H      2.81371      3.33070      0.54582         0.081823      0.000000      0.014362
H      0.67929      9.99210      3.76990        -0.081823     -0.000000     -0.014362
C      2.06081      0.37155      2.61598         0.323391     -2.800703     -0.167263
C      1.43219      7.03295      1.69974        -0.323391     -2.800703      0.167263
C      1.43219     12.95125      1.69974        -0.323391      2.800703      0.167263
C      2.06081      6.28985      2.61598         0.323391      2.800703     -0.167263
N      1.12942      3.33070      0.12802        -0.493762     -0.000000      2.783641
N      0.38365      3.33070      1.50492         1.456087      0.000000     -0.656961
N      2.36358      9.99210      4.18770         0.493762      0.000000     -2.783641
N      3.10935      9.99210      2.81080        -1.456087      0.000000      0.656961
O      2.09951      1.65602      3.01044         0.247355     -0.559936      0.047517
O      3.01822     12.62931      3.35726        -2.666534     -2.001965     -2.945970
O      1.39349      8.31742      1.30528        -0.247355     -0.559936     -0.047517
O      0.47478      5.96791      0.95846         2.666534     -2.001965      2.945970
O      1.39349     11.66678      1.30528        -0.247355      0.559936     -0.047517
O      0.47478      0.69349      0.95846         2.666534      2.001965      2.945970
O      2.09951      5.00538      3.01044         0.247355      0.559936      0.047517
O      3.01822      7.35489      3.35726        -2.666534      2.001965     -2.945970
