16
# total energy = -64.36928588 eVC      3.10971      1.33916      0.78403        -0.536037     -0.938818      0.932312
C      2.22627      5.86916      2.26508         0.536037     -0.938818     -0.932312
C      0.44761      7.72084      5.91537         0.536037      0.938818     -0.932312
C      1.33105      3.19084      4.43433        -0.536037      0.938818      0.932312
N      0.20520      0.72918      6.97659        -1.820814     -4.644032      0.256094
N      3.28050      2.61792      0.53157         0.639858     -1.585234     -1.094349
N      1.57346      5.25918      3.37311         1.820814     -4.644032     -0.256094
N      2.05548      7.14792      2.51754        -0.639858     -1.585234      1.094349
N      3.35212      8.33082     -0.27719         1.820814      4.644032     -0.256094
N      0.27682      6.44208      6.16783        -0.639858      1.585234      1.094349
N      1.98386      3.80082      3.32630        -1.820814      4.644032      0.256094
N      1.50184      1.91208      4.18187         0.639858      1.585234     -1.094349
O      2.55236      0.87565      1.75990        -0.169424      0.680794      0.233775
O      2.78363      5.40565      1.28921         0.169424      0.680794     -0.233775
O      1.00497      8.18435      4.93951         0.169424     -0.680794     -0.233775
O      0.77370      3.65435      5.41019        -0.169424     -0.680794      0.233775
