38
# total energy = -218.70658867 eVH      3.50806      1.49800      2.13746         0.009588     -0.039778      0.031650
H      3.84903      2.77313      1.01555         0.020784     -0.009414     -0.045756
H      2.81162      3.05566      2.31205        -0.007050      0.022352      0.018182
H      2.32811      2.02854      1.03194        -0.022779      0.004966     -0.026756
H      3.21935     10.09000     -0.12631         0.008226      0.054158      0.019138
H      4.50894      8.81100      2.13746        -0.009588      0.039778      0.031650
H      4.16797      7.53587      1.01555        -0.020784      0.009414     -0.045756
H      5.20538      7.25334      2.31205         0.007050     -0.022352      0.018182
H      5.68889      8.28046      1.03194         0.022779     -0.004966     -0.026756
H      4.79765      0.21900     -0.12631        -0.008226     -0.054158      0.019138
H      0.50044      6.65250      1.59754        -0.009588     -0.039778     -0.031650
H      0.15947      7.92763      2.71945        -0.020784     -0.009414      0.045756
H      1.19688      8.21016      1.42295         0.007050      0.022352     -0.018182
H      1.68039      7.18304      2.70306         0.022779      0.004966      0.026756
H      0.78915      4.93550      0.12631        -0.008226      0.054158     -0.019138
H      7.51656      3.65650      1.59754         0.009588      0.039778     -0.031650
H      7.85753      2.38137      2.71945         0.020784      0.009414      0.045756
H      6.82012      2.09884      1.42295        -0.007050     -0.022352     -0.018182
H      6.33661      3.12596      2.70306        -0.022779     -0.004966      0.026756
H      7.22785      5.37350      0.12631         0.008226     -0.054158     -0.019138
C      0.74731      0.24633      0.24277         0.005016     -0.018534      0.011953
C      7.26969     10.06267      0.24277        -0.005016      0.018534      0.011953
C      3.26119      5.40083      3.49223        -0.005016     -0.018534     -0.011953
C      4.75581      4.90817      3.49223         0.005016      0.018534     -0.011953
N      3.12795      2.32920      1.63079        -0.041190     -0.005043     -0.038681
N      4.88905      7.97980      1.63079         0.041190      0.005043     -0.038681
N      0.88055      7.48370      2.10421         0.041190     -0.005043      0.038681
N      7.13645      2.82530      2.10421        -0.041190      0.005043      0.038681
O      1.64010      9.69726      0.51648        -0.013249     -0.021393     -0.001014
O      0.95720      1.47145     -0.01458         0.020118     -0.015026      0.015575
O      6.37690      0.61174      0.51648         0.013249      0.021393     -0.001014
O      7.05980      8.83755     -0.01458        -0.020118      0.015026      0.015575
O      2.36840      4.54276      3.21852         0.013249     -0.021393      0.001014
O      3.05130      6.62595      0.01458        -0.020118     -0.015026     -0.015575
O      5.64860      5.76624      3.21852        -0.013249      0.021393      0.001014
O      4.96570      3.68305      0.01458         0.020118      0.015026     -0.015575
O      4.00850      0.00000      3.03658        -0.000000     -0.000000     -0.036657
O      0.00000      5.15450      0.69842        -0.000000     -0.000000      0.036657
