18
# total energy = -101.79868876 eVH      0.63787      4.23954      9.04699         0.021867     -0.014533      0.003241
H      0.56548      1.24964      0.18995         0.029812      0.045310      0.051784
H      3.26296      0.50063      8.13754         0.034346      0.008772      0.037170
H      3.17195      0.18131      0.70843        -0.057216     -0.024913      0.056056
H      1.86818      2.57098      6.99542        -0.012904      0.120820      0.082047
H      0.63787      0.43946      4.49099         0.021867      0.014533      0.003241
H      0.56548      3.42936      4.74595         0.029812     -0.045310      0.051784
H      3.26296      4.17837      3.58154         0.034346     -0.008772      0.037170
H      3.17195      4.49769      5.26443        -0.057216      0.024913      0.056056
H      1.86818      2.10802      2.43942        -0.012904     -0.120820      0.082047
C      1.89934      1.74864      6.25138        -0.042480      0.024828     -0.109647
C      1.89934      2.93036      1.69538        -0.042480     -0.024828     -0.109647
N      0.00326      0.38484     -0.00942        -0.030522     -0.008866     -0.167442
N      0.00326      4.29416      4.54658        -0.030522      0.008866     -0.167442
O      1.45353      1.98774      5.08719         0.005071     -0.019218     -0.017083
O      2.37995      0.64082      6.64068         0.052028     -0.138022      0.063873
O      1.45353      2.69126      0.53119         0.005071      0.019218     -0.017083
O      2.37995      4.03818      2.08468         0.052028      0.138022      0.063873
