40
# total energy = -61.21008552 eVH      5.35227      0.63318      3.95945         0.183813     -0.588901      0.109998
H      5.06426      0.88289      1.51790        -0.431258      0.003905      0.205653
H      7.14423      2.95437      3.95945        -0.183813      0.588901      0.109998
H      7.43224      2.70466      1.51790         0.431258     -0.003905      0.205653
H      2.97873      4.22073      1.50275        -0.183813     -0.588901     -0.109998
H      3.26674      4.47044      3.94430         0.431258      0.003905     -0.205653
H      1.18677      6.54192      1.50275         0.183813      0.588901     -0.109998
H      0.89876      6.29221      3.94430        -0.431258     -0.003905     -0.205653
H      2.97873      6.54192      1.50275        -0.183813      0.588901     -0.109998
H      3.26674      6.29221      3.94430         0.431258     -0.003905     -0.205653
H      1.18677      4.22073      1.50275         0.183813     -0.588901     -0.109998
H      0.89876      4.47044      3.94430        -0.431258      0.003905     -0.205653
H      5.35227      2.95437      3.95945         0.183813      0.588901      0.109998
H      5.06426      2.70466      1.51790        -0.431258     -0.003905      0.205653
H      7.14423      0.63318      3.95945        -0.183813     -0.588901      0.109998
H      7.43224      0.88289      1.51790         0.431258      0.003905      0.205653
H      6.24825      6.86981      5.25844        -0.000000     -0.816833      0.204106
H      6.24825      3.89284      5.25844        -0.000000      0.816833      0.204106
H      2.08275      3.28226      0.20376        -0.000000     -0.816833     -0.204106
H      2.08275      0.30529      0.20376        -0.000000      0.816833     -0.204106
H      4.16461      1.79377      0.22473        -1.326899      0.000000      0.003450
H      0.00089      1.79377      0.22473         1.326899      0.000000      0.003450
H      4.16639      5.38132      5.23747         1.326899     -0.000000     -0.003450
H     -0.00089      5.38132      5.23747        -1.326899      0.000000     -0.003450
C      6.24825      0.51047      4.56504        -0.000000     -1.359785     -1.633300
C      6.24825      3.07708      4.56504        -0.000000      1.359785     -1.633300
C      2.08275      4.09802      0.89716        -0.000000     -1.359785      1.633300
C      2.08275      6.66463      0.89716        -0.000000      1.359785      1.633300
C      4.95426      1.79377      0.91783         0.915969      0.000000      2.863045
C      7.54224      1.79377      0.91783        -0.915969     -0.000000      2.863045
C      3.37674      5.38132      4.54437        -0.915969      0.000000     -2.863045
C      0.78876      5.38132      4.54437         0.915969      0.000000     -2.863045
N      6.24825      1.79377      0.03482        -0.000000     -0.000000     -0.070513
N      2.08275      5.38132      5.42738        -0.000000      0.000000      0.070513
N      2.08275      1.79377      2.20694        -0.000000      0.000000     -1.140328
N      6.24825      5.38132      3.25526        -0.000000     -0.000000      1.140328
O      3.80592      1.79377      3.94000        -1.620658      0.000000     -1.214735
O      0.35958      1.79377      3.94000         1.620658     -0.000000     -1.214735
O      4.52508      5.38132      1.52220         1.620658     -0.000000      1.214735
O      7.97142      5.38132      1.52220        -1.620658      0.000000      1.214735
