12
# total energy = -69.26614789 eVC      2.47853      1.30750      0.97595       -17.543619     -0.000000     -4.856065
C      2.93147      3.92250      2.76095        17.543619     -0.000000     -4.856065
C      8.34147      3.92250      2.59405        17.543619     -0.000000      4.856065
C      7.88853      1.30750      0.80905       -17.543619     -0.000000      4.856065
N     -1.21701      1.30750     -0.22938        -4.161347     -0.000000      4.390421
N      6.62701      3.92250      1.55562         4.161347     -0.000000      4.390421
N      1.21701      3.92250      0.22938         4.161347     -0.000000     -4.390421
N      4.19299      1.30750      2.01438        -4.161347     -0.000000     -4.390421
O      3.26629      1.30750      1.17586        21.721876      0.000000      9.246971
O      2.14371      3.92250      2.96086       -21.721876     -0.000000      9.246971
O      7.55371      3.92250      2.39414       -21.721876      0.000000     -9.246971
O      8.67629      1.30750      0.60914        21.721876      0.000000     -9.246971
