12
# total energy = -76.48015161 eVC      2.39118      1.30750      0.84691        -0.066107      0.000000      0.058319
C      3.01882      3.92250      2.63191         0.066107      0.000000      0.058319
C      8.42882      3.92250      2.72309         0.066107     -0.000000     -0.058319
C      7.80118      1.30750      0.93809        -0.066107      0.000000     -0.058319
N     -1.11479      1.30750     -0.12774        -0.009222      0.000000     -0.000556
N      6.52479      3.92250      1.65726         0.009222      0.000000     -0.000556
N      1.11479      3.92250      0.12774         0.009222      0.000000      0.000556
N      4.29521      1.30750      1.91274        -0.009222     -0.000000      0.000556
O      3.23072      1.30750      1.40917         0.055131      0.000000     -0.052455
O      2.17928      3.92250      3.19417        -0.055131      0.000000     -0.052455
O      7.58928      3.92250      2.16083        -0.055131     -0.000000      0.052455
O      8.64072      1.30750      0.37583         0.055131     -0.000000      0.052455
