16
# total energy = -102.48958750 eVC      2.52580      0.96229      1.82623        -0.223073      0.104081      0.506541
C      2.81019      5.49229      1.22288         0.223073      0.104081     -0.506541
C      1.03153      8.09771      4.87318         0.223073     -0.104081     -0.506541
C      0.74713      3.56771      5.47652        -0.223073     -0.104081      0.506541
N      0.01152      0.60926     -0.03680        -0.094853      2.262331      0.530794
N     -0.24062      1.82975      0.61518        -0.229614     -0.202032      0.146032
N      1.76715      5.13926      3.38650         0.094853      2.262331     -0.530794
N      2.01928      6.35975      2.73452         0.229614     -0.202032     -0.146032
N     -0.01152      8.45074      0.03680         0.094853     -2.262331     -0.530794
N      0.24062      7.23025      6.38482         0.229614      0.202032     -0.146032
N      1.79018      3.92074      3.31290        -0.094853     -2.262331      0.530794
N      1.53804      2.70025      3.96489        -0.229614      0.202032      0.146032
O      2.78383      1.88255      1.43140         0.111451      0.533676     -0.068743
O      2.55215      6.41255      1.61771        -0.111451      0.533676      0.068743
O      0.77349      7.17745      5.26801        -0.111451     -0.533676      0.068743
O      1.00517      2.64745      5.08169         0.111451     -0.533676     -0.068743
