16
# total energy = -100.02242396 eVC      2.51079      0.81125      1.85371         0.674674      3.236891     -1.244878
C      2.82519      5.34125      1.19540        -0.674674      3.236891      1.244878
C      1.04653      8.24875      4.84570        -0.674674     -3.236891      1.244878
C      0.73213      3.71875      5.50400         0.674674     -3.236891     -1.244878
N     -0.03621      0.59771     -0.03264         0.594001      3.034934     -0.110976
N     -0.15861      1.84286      0.53753        -1.989773     -0.224443      2.577799
N      1.81488      5.12771      3.38234        -0.594001      3.034934      0.110976
N      1.93728      6.37286      2.81218         1.989773     -0.224443     -2.577799
N      0.03621      8.46229      0.03264        -0.594001     -3.034934      0.110976
N      0.15861      7.21714      6.46247         1.989773      0.224443     -2.577799
N      1.74245      3.93229      3.31706         0.594001     -3.034934     -0.110976
N      1.62005      2.68714      3.88723        -1.989773      0.224443      2.577799
O      2.79654      1.90001      1.35575         0.328610     -1.702928      0.044344
O      2.53945      6.43001      1.69336        -0.328610     -1.702928     -0.044344
O      0.76078      7.15999      5.34365        -0.328610      1.702928     -0.044344
O      1.01788      2.62999      5.00605         0.328610      1.702928      0.044344
