38
# total energy = -216.63831099 eVH      3.53390      1.49595      1.97326         0.186580     -0.140438      1.592361
H      3.87344      2.84727      1.19616         0.986741      1.070344     -1.911340
H      2.75398      3.03341      2.31363        -0.626626      1.226595      2.294988
H      2.32919      2.00440      1.09087         0.475758      0.918235     -0.627528
H      3.29085     10.17425     -0.05361        -0.898166     -0.302735     -0.995793
H      4.48310      8.81305      1.97326        -0.186580      0.140438      1.592361
H      4.14356      7.46173      1.19616        -0.986741     -1.070344     -1.911340
H      5.26302      7.27559      2.31363         0.626626     -1.226595      2.294988
H      5.68781      8.30460      1.09087        -0.475758     -0.918235     -0.627528
H      4.72615      0.13475     -0.05361         0.898166      0.302735     -0.995793
H      0.47460      6.65045      1.76174        -0.186580     -0.140438     -1.592361
H      0.13506      8.00177      2.53884        -0.986741      1.070344      1.911340
H      1.25452      8.18791      1.42137         0.626626      1.226595     -2.294988
H      1.67931      7.15890      2.64413        -0.475758      0.918235      0.627528
H      0.71765      5.01975      0.05361         0.898166     -0.302735      0.995793
H      7.54240      3.65855      1.76174         0.186580      0.140438     -1.592361
H      7.88194      2.30723      2.53884         0.986741     -1.070344      1.911340
H      6.76248      2.12109      1.42137        -0.626626     -1.226595     -2.294988
H      6.33769      3.15010      2.64413         0.475758     -0.918235      0.627528
H      7.29935      5.28925      0.05361        -0.898166      0.302735      0.995793
C      0.73987      0.23901      0.25769         0.683605     -0.426075      0.096682
C      7.27713     10.06999      0.25769        -0.683605      0.426075      0.096682
C      3.26863      5.39351      3.47731        -0.683605     -0.426075     -0.096682
C      4.74837      4.91549      3.47731         0.683605      0.426075     -0.096682
N      3.13177      2.39084      1.66934        -1.145323     -3.176840     -1.477173
N      4.88523      7.91816      1.66934         1.145323      3.176840     -1.477173
N      0.87673      7.54534      2.06566         1.145323     -3.176840      1.477173
N      7.14027      2.76366      2.06566        -1.145323      3.176840      1.477173
O      1.63425      9.67713      0.52756        -0.228526      0.458486      0.021858
O      0.95815      1.45842      0.00341         0.194024      0.237926      0.031511
O      6.38275      0.63187      0.52756         0.228526     -0.458486      0.021858
O      7.05885      8.85058      0.00341        -0.194024     -0.237926      0.031511
O      2.37425      4.52263      3.20744         0.228526      0.458486     -0.021858
O      3.05035      6.61292     -0.00341        -0.194024      0.237926     -0.031511
O      5.64275      5.78637      3.20744        -0.228526     -0.458486     -0.021858
O      4.96665      3.69608     -0.00341         0.194024     -0.237926     -0.031511
O      4.00850      0.00000      2.99440         0.000000     -0.000000      1.562800
O     -0.00000      5.15450      0.74060         0.000000     -0.000000     -1.562800
