12
# total energy = -75.98625140 eVC      2.36995      1.30750      0.93078         0.292952      0.000000     -0.252183
C      3.04005      3.92250      2.71578        -0.292952      0.000000     -0.252183
C      8.45005      3.92250      2.63922        -0.292952      0.000000      0.252183
C      7.77995      1.30750      0.85422         0.292952      0.000000      0.252183
N     -1.19223      1.30750     -0.23168         0.205316      0.000000      0.412858
N      6.60223      3.92250      1.55332        -0.205316      0.000000      0.412858
N      1.19223      3.92250      0.23168        -0.205316      0.000000     -0.412858
N      4.21777      1.30750      2.01668         0.205316     -0.000000     -0.412858
O      3.34585      1.30750      1.22049        -0.548293     -0.000000      0.667203
O      2.06415      3.92250      3.00549         0.548293      0.000000      0.667203
O      7.47415      3.92250      2.34951         0.548293     -0.000000     -0.667203
O      8.75585      1.30750      0.56451        -0.548293     -0.000000     -0.667203
