6
# total energy = -42.76454478 eVZr      0.00000     -0.00000      4.10730        -0.000000      0.000000     -0.181482
Zr      1.64000      1.64000      9.90730        -0.000000      0.000000     -0.181482
Zr      0.00000      0.00000      7.49270        -0.000000     -0.000000      0.181482
Zr      1.64000      1.64000      1.69270         0.000000      0.000000      0.181482
Au      0.00000     -0.00000      0.00000        -0.000000      0.000000      0.000000
Au      1.64000      1.64000      5.80000         0.000000     -0.000000      0.000000
