16
# total energy = -106.56827494 eVC      2.35531      1.49957      2.25742         0.443333      2.463922      0.159691
C      2.98067      6.02957      0.79169        -0.443333      2.463922     -0.159691
C      1.20201      7.56043      4.44199        -0.443333     -2.463922     -0.159691
C      0.57665      3.03043      5.90772         0.443333     -2.463922      0.159691
N     -0.04806      0.48804      0.43744        -1.376864     -1.001015     -1.839877
N     -0.59736      1.50435      0.98886         1.419215      0.983905      1.323254
N      1.82672      5.01804      2.91226         1.376864     -1.001015      1.839877
N      2.37602      6.03435      2.36084        -1.419215      0.983905     -1.323254
N      0.04806      8.57196     -0.43744         1.376864      1.001015      1.839877
N      0.59736      7.55565      6.01114        -1.419215     -0.983905     -1.323254
N      1.73061      4.04196      3.78714        -1.376864      1.001015     -1.839877
N      1.18130      3.02565      4.33856         1.419215     -0.983905      1.323254
O      2.77640      2.33923      1.65088        -1.229831     -3.149525     -0.357318
O      2.55958      6.86923      1.39823         1.229831     -3.149525      0.357318
O      0.78092      6.72077      5.04853         1.229831      3.149525      0.357318
O      0.99774      2.19077      5.30118        -1.229831      3.149525     -0.357318
