40
# total energy = -224.75802304 eVH      6.12701      1.31112      6.12833        -0.069895     -0.043617      0.008446
H      4.92809      3.04567      4.94981        -0.040755     -0.029309     -0.021559
H      5.84460      4.23511      3.94919        -0.037217      0.081824     -0.048601
H      5.81853      4.37466      5.74786         0.042206     -0.011959      0.085879
H      6.13230      1.34436      3.69932        -0.028751     -0.022505     -0.014104
H      4.41619      4.18028      1.77563         0.069895      0.043617      0.008446
H      5.61511      2.44573      0.59711         0.040755      0.029309     -0.021559
H      4.69860      1.25629      8.30189         0.037217     -0.081824     -0.048601
H      4.72467      1.11674      1.39516        -0.042206      0.011959      0.085879
H      4.41090      4.14704      8.05202         0.028751      0.022505     -0.014104
H      2.61261      4.18028      1.77563        -0.069895      0.043617      0.008446
H      1.41369      2.44573      0.59711        -0.040755      0.029309     -0.021559
H      2.33020      1.25629      8.30189        -0.037217     -0.081824     -0.048601
H      2.30413      1.11674      1.39516         0.042206      0.011959      0.085879
H      2.61790      4.14704      8.05202        -0.028751      0.022505     -0.014104
H      0.90179      1.31112      6.12833         0.069895     -0.043617      0.008446
H      2.10071      3.04567      4.94981         0.040755     -0.029309     -0.021559
H      1.18420      4.23511      3.94919         0.037217      0.081824     -0.048601
H      1.21027      4.37466      5.74786        -0.042206     -0.011959      0.085879
H      0.89650      1.34436      3.69932         0.028751     -0.022505     -0.014104
H     -0.00000      2.55388      7.04457         0.000000      0.232631      0.155355
H     -0.00000      2.66080      2.84965         0.000000     -0.073983      0.000563
H      3.51440      2.93752      2.69187         0.000000     -0.232631      0.155355
H      3.51440      2.83060      7.20235         0.000000      0.073983      0.000563
C      5.81106      3.68937      4.89631        -0.011269     -0.074309      0.178272
C      4.73214      1.80203      0.54361         0.011269      0.074309      0.178272
C      2.29666      1.80203      0.54361        -0.011269      0.074309      0.178272
C      1.21774      3.68937      4.89631         0.011269     -0.074309      0.178272
C     -0.00000      4.80477      0.62948         0.000000     -0.020412     -0.878578
C     -0.00000      1.92926      6.15382         0.000000      0.052270     -0.167471
C     -0.00000      1.97104      3.70469         0.000000     -0.131266     -0.086162
C      3.51440      0.68663      4.98218         0.000000      0.020412     -0.878578
C      3.51440      3.56214      1.80112         0.000000     -0.052270     -0.167471
C      3.51440      3.52036     -0.64801         0.000000      0.131266     -0.086162
N     -0.00000      4.80959      1.82616         0.000000     -0.063497      0.389509
N     -0.00000      2.81322      4.94366         0.000000      0.139068     -0.222142
N      3.51440      0.68181      6.17886         0.000000      0.063497      0.389509
N      3.51440      2.67818      0.59096         0.000000     -0.139068     -0.222142
O     -0.00000      4.79200      8.09678         0.000000     -0.010816      0.432260
O      3.51440      0.69940      3.74408         0.000000      0.010816      0.432260
