40
# total energy = -224.69155018 eVH      6.12185      1.29331      6.12426         0.206791      0.212987      0.011318
H      4.92081      3.03995      4.93998         0.137702      0.119107      0.004860
H      5.85533      4.22032      3.93543        -0.107049      0.168049     -0.074962
H      5.82687      4.38364      5.73957        -0.026601     -0.154259     -0.086324
H      6.11985      1.36312      3.71895         0.132125     -0.064647     -0.165690
H      4.42135      4.19809      1.77156        -0.206791     -0.212987      0.011318
H      5.62239      2.45145      0.58728        -0.137702     -0.119107      0.004860
H      4.68787      1.27108      8.28813         0.107049     -0.168049     -0.074962
H      4.71633      1.10776      1.38687         0.026601      0.154259     -0.086324
H      4.42335      4.12828      8.07165        -0.132125      0.064647     -0.165690
H      2.60745      4.19809      1.77156         0.206791     -0.212987      0.011318
H      1.40641      2.45145      0.58728         0.137702     -0.119107      0.004860
H      2.34093      1.27108      8.28813        -0.107049     -0.168049     -0.074962
H      2.31247      1.10776      1.38687        -0.026601      0.154259     -0.086324
H      2.60545      4.12828      8.07165         0.132125      0.064647     -0.165690
H      0.90695      1.29331      6.12426        -0.206791      0.212987      0.011318
H      2.10799      3.03995      4.93998        -0.137702      0.119107      0.004860
H      1.17347      4.22032      3.93543         0.107049      0.168049     -0.074962
H      1.20193      4.38364      5.73957         0.026601     -0.154259     -0.086324
H      0.90895      1.36312      3.71895        -0.132125     -0.064647     -0.165690
H     -0.00000      2.54286      7.06459        -0.000000      0.048355     -0.253346
H     -0.00000      2.69017      2.87645        -0.000000     -0.168419     -0.258001
H      3.51440      2.94854      2.71189        -0.000000     -0.048355     -0.253346
H      3.51440      2.80123      7.22915        -0.000000      0.168419     -0.258001
C      5.80900      3.68818      4.88802        -0.022020     -0.095989      0.347914
C      4.73420      1.80322      0.53532         0.022020      0.095989      0.347914
C      2.29460      1.80322      0.53532        -0.022020      0.095989      0.347914
C      1.21980      3.68818      4.88802         0.022020     -0.095989      0.347914
C     -0.00000      4.81446      0.63249        -0.000000     -0.079679     -0.843569
C     -0.00000      1.92506      6.15342        -0.000000     -0.150988      0.005023
C     -0.00000      1.97688      3.70708        -0.000000     -0.242637      0.023504
C      3.51440      0.67694      4.98519        -0.000000      0.079679     -0.843569
C      3.51440      3.56634      1.80072        -0.000000      0.150988      0.005023
C      3.51440      3.51452     -0.64562        -0.000000      0.242637      0.023504
N     -0.00000      4.81946      1.83005        -0.000000     -0.048606      0.296246
N     -0.00000      2.81253      4.93495        -0.000000      0.167790      0.461937
N      3.51440      0.67194      6.18275        -0.000000      0.048606      0.296246
N      3.51440      2.67887      0.58225        -0.000000     -0.167790      0.461937
O     -0.00000      4.79231      8.09902        -0.000000      0.013337      0.493974
O      3.51440      0.69909      3.74632        -0.000000     -0.013337      0.493974
