36
# total energy = -203.20163426 eVH      4.05601      2.39626      2.31062         2.437513     -2.570824     -1.494129
H      4.18417      1.49590     -0.18240         1.712943      1.435057      2.323834
H      6.93279      1.00782      0.76044         0.612709     -0.214927     -6.007072
H      0.70155      0.59665      3.41092        -3.034518      1.495392     -2.518019
H      6.49755      0.79975      4.32339        -1.898620      1.825386     -2.247264
H      5.02505      1.62875      4.22183        -3.191713      1.245717      1.290157
H      4.05601      1.11974      9.48962         2.437513      2.570824     -1.494129
H      4.18417      2.02010      6.99660         1.712943     -1.435057      2.323834
H      6.93279      2.50818      7.93944         0.612709      0.214927     -6.007072
H      0.70155      2.91935     10.58992        -3.034518     -1.495392     -2.518019
H      6.49755      2.71625     11.50239        -1.898620     -1.825386     -2.247264
H      5.02505      1.88725     11.40083        -3.191713     -1.245717      1.290157
C      5.84298      1.38626      2.44340        -3.812685      1.620047     -0.709709
C      5.84298      2.12974      9.62240        -3.812685     -1.620047     -0.709709
N      1.57781      3.42851      5.42927        -0.353860      0.261506      0.134703
N      1.44380      3.14436      6.77377         0.444583     -0.365165      0.759798
N      2.69891      3.02775      4.83307         0.964377     -0.619018      0.171839
N      4.88048      1.70140      1.73666       -15.932853      6.417369      0.802768
N      6.62872      1.10229      1.61830        17.452145     -6.849374      2.971717
N      5.76060      1.40741      3.65937         6.028793     -3.392719      9.448706
N      1.57781      0.08749     12.60827        -0.353860     -0.261506      0.134703
N      1.44380      0.37164     13.95277         0.444583      0.365165      0.759798
N      2.69891      0.48825     12.01207         0.964377      0.619018      0.171839
N      4.88048      1.81460      8.91566       -15.932853     -6.417369      0.802768
N      6.62872      2.41371      8.79730        17.452145      6.849374      2.971717
N      5.76060      2.10859     10.83837         6.028793      3.392719      9.448706
O      2.28735      2.60399      7.51131        -0.211792      0.103842     -0.339109
O      0.32848     -0.01216      7.19718        -0.688170      0.292036     -0.037922
O      3.66283      2.42009      5.39044        -0.097476      0.021579     -0.143631
O      2.73212      3.28493      3.61355        -0.181632      0.311429     -0.609637
O      4.83586      2.13421      0.46747        -0.249746     -1.191146     -3.797031
O      2.28735      0.91201      0.33231        -0.211792     -0.103842     -0.339109
O      0.32848      0.01216      0.01818        -0.688170     -0.292036     -0.037922
O      3.66283      1.09591     12.56944        -0.097476     -0.021579     -0.143631
O      2.73212      0.23107     10.79255        -0.181632     -0.311429     -0.609637
O      4.83586      1.38179      7.64647        -0.249746      1.191146     -3.797031
