16
# total energy = -109.89460051 eVC      2.29273      1.84896      2.51418         0.165841      0.829722     -0.470061
C      3.04325      6.37896      0.53493        -0.165841      0.829722      0.470061
C      1.26459      7.21104      4.18523        -0.165841     -0.829722      0.470061
C      0.51407      2.68104      6.16447         0.165841     -0.829722     -0.470061
N     -0.25467      0.40379      0.43323         1.075128     -1.026480     -1.158956
N     -0.51330      1.39327      1.16781        -0.570544      0.647680      0.427495
N      2.03334      4.93379      2.91648        -1.075128     -1.026480      1.158956
N      2.29196      5.92327      2.18189         0.570544      0.647680     -0.427495
N      0.25467      8.65621     -0.43323        -1.075128      1.026480      1.158956
N      0.51330      7.66673      5.83219         0.570544     -0.647680     -0.427495
N      1.52399      4.12621      3.78293         1.075128      1.026480     -1.158956
N      1.26536      3.13673      4.51751        -0.570544     -0.647680      0.427495
O      2.68314      2.29549      1.63600        -0.295778     -0.396634      1.090563
O      2.65284      6.82549      1.41311         0.295778     -0.396634     -1.090563
O      0.87418      6.76451      5.06341         0.295778      0.396634     -1.090563
O      0.90448      2.23451      5.28630        -0.295778      0.396634      1.090563
