38
# total energy = -218.50008783 eVH      3.54115      1.48159      2.09193        -0.235049      0.487835      0.017866
H      3.85533      2.86185      1.09475        -0.079838     -0.109858     -0.232141
H      2.76266      3.02450      2.38206         0.296760     -0.319114     -0.352671
H      2.33031      2.05132      1.01451         0.479454      0.217982      0.233901
H      3.20591     10.14503     -0.10424         0.047430     -0.105827      0.030280
H      4.47585      8.82741      2.09193         0.235049     -0.487835      0.017866
H      4.16167      7.44715      1.09475         0.079838      0.109858     -0.232141
H      5.25434      7.28450      2.38206        -0.296760      0.319114     -0.352671
H      5.68669      8.25768      1.01451        -0.479454     -0.217982      0.233901
H      4.81109      0.16397     -0.10424        -0.047430      0.105827      0.030280
H      0.46735      6.63609      1.64307         0.235049      0.487835     -0.017866
H      0.15317      8.01635      2.64025         0.079838     -0.109858      0.232141
H      1.24584      8.17900      1.35294        -0.296760     -0.319114      0.352671
H      1.67819      7.20582      2.72049        -0.479454      0.217982     -0.233901
H      0.80259      4.99053      0.10424        -0.047430     -0.105827     -0.030280
H      7.54965      3.67291      1.64307        -0.235049     -0.487835     -0.017866
H      7.86383      2.29265      2.64025        -0.079838      0.109858      0.232141
H      6.77116      2.13000      1.35294         0.296760      0.319114      0.352671
H      6.33881      3.10318      2.72049         0.479454     -0.217982     -0.233901
H      7.21441      5.31847      0.10424         0.047430      0.105827     -0.030280
C      0.75414      0.23169      0.25985        -0.530604      0.907321     -0.169848
C      7.26286     10.07731      0.25985         0.530604     -0.907321     -0.169848
C      3.25436      5.38619      3.47515         0.530604      0.907321      0.169848
C      4.76264      4.92281      3.47515        -0.530604     -0.907321      0.169848
N      3.12961      2.35227      1.64818        -0.447070     -0.421487      0.202897
N      4.88739      7.95673      1.64818         0.447070      0.421487      0.202897
N      0.87889      7.50677      2.08682         0.447070     -0.421487     -0.202897
N      7.13811      2.80223      2.08682        -0.447070      0.421487     -0.202897
O      1.63590      9.69252      0.53489         0.481701     -0.438941      0.079000
O      0.96968      1.46503     -0.00024        -0.032522     -0.338148      0.031323
O      6.38110      0.61648      0.53489        -0.481701      0.438941      0.079000
O      7.04732      8.84397     -0.00024         0.032522      0.338148      0.031323
O      2.37260      4.53802      3.20011        -0.481701     -0.438941     -0.079000
O      3.03882      6.61953      0.00024         0.032522     -0.338148     -0.031323
O      5.64440      5.77098      3.20011         0.481701      0.438941     -0.079000
O      4.97818      3.68947      0.00024        -0.032522      0.338148     -0.031323
O      4.00850      0.00000      3.06234         0.000000     -0.000000     -0.197769
O     -0.00000      5.15450      0.67266         0.000000     -0.000000      0.197769
