12
# total energy = -72.37352697 eVC      2.46110      1.30750      0.97117       -11.757670     -0.000000     -3.479641
C      2.94890      3.92250      2.75617        11.757670      0.000000     -3.479641
C      8.35890      3.92250      2.59883        11.757670     -0.000000      3.479641
C      7.87110      1.30750      0.81383       -11.757670     -0.000000      3.479641
N     -1.22244      1.30750     -0.22536        -2.527616     -0.000000      2.985170
N      6.63244      3.92250      1.55964         2.527616     -0.000000      2.985170
N      1.22244      3.92250      0.22536         2.527616      0.000000     -2.985170
N      4.18756      1.30750      2.01036        -2.527616      0.000000     -2.985170
O      3.28853      1.30750      1.18512        14.283743      0.000000      6.465877
O      2.12147      3.92250      2.97012       -14.283743      0.000000      6.465877
O      7.53147      3.92250      2.38488       -14.283743      0.000000     -6.465877
O      8.69853      1.30750      0.59988        14.283743      0.000000     -6.465877
