30
# total energy = -149.43120882 eVH      0.77545      2.63791      4.90278        -4.518844    -13.229193     -7.599799
H      0.65668      2.59795      1.86123         3.156637     -7.568578      4.829342
H      0.24451      0.03997      0.45500       -10.214488    -13.785763    -15.053831
H      2.71755      9.29931     -0.58706         4.518844    -13.229193      7.599799
H      2.83632      9.25935      2.45449        -3.156637     -7.568578     -4.829342
H      3.24849      6.70137      3.86073        10.214488    -13.785763     15.053831
H      2.71755     10.68489     -0.58706         4.518844     13.229193      7.599799
H      2.83632     10.72485      2.45449        -3.156637      7.568578     -4.829342
H      3.24849     13.28283      3.86073        10.214488     13.785763     15.053831
H      0.77545      4.02349      4.90278        -4.518844     13.229193     -7.599799
H      0.65668      4.06345      1.86123         3.156637      7.568578      4.829342
H      0.24451      6.62143      0.45500       -10.214488     13.785763    -15.053831
H      3.05288      3.33070      0.59682       -20.368718      0.000000     -2.139552
H      0.44012      9.99210      3.71890        20.368718      0.000000      2.139552
C      2.16196      0.33294      2.72122        -6.029306     -1.041988     -7.095445
C      1.33104      6.99434      1.59450         6.029306     -1.041988      7.095445
C      1.33104     12.98986      1.59450         6.029306      1.041988      7.095445
C      2.16196      6.32846      2.72122        -6.029306      1.041988     -7.095445
N      1.03194      3.33070      0.18378         8.935016      0.000000     13.910370
N      0.36006      3.33070      1.45463        14.326131      0.000000     -5.977223
N      2.46106      9.99210      4.13194        -8.935016      0.000000    -13.910370
N      3.13294      9.99210      2.86109       -14.326131      0.000000      5.977223
O      2.05944      1.53399      2.93638         0.416293      3.436948      1.361016
O      2.92375     12.83732      3.34136        -8.277814    -16.888735    -14.917051
O      1.43356      8.19539      1.37935        -0.416293      3.436948     -1.361016
O      0.56925      6.17592      0.97437         8.277814    -16.888735     14.917051
O      1.43356     11.78881      1.37935        -0.416293     -3.436948     -1.361016
O      0.56925      0.48548      0.97437         8.277814     16.888735     14.917051
O      2.05944      5.12741      2.93638         0.416293     -3.436948      1.361016
O      2.92375      7.14688      3.34136        -8.277814     16.888735    -14.917051
