16
# total energy = -102.55089533 eVC      2.52268      0.97175      1.83269        -0.240247      0.037673      0.565765
C      2.81331      5.50175      1.21643         0.240247      0.037673     -0.565765
C      1.03464      8.08825      4.86672         0.240247     -0.037673     -0.565765
C      0.74402      3.55825      5.48298        -0.240247     -0.037673      0.565765
N      0.01597      0.61116     -0.02619        -0.185291      1.902443      0.496020
N     -0.24939      1.82563      0.61737        -0.175654     -0.153493      0.238200
N      1.76269      5.14116      3.37589         0.185291      1.902443     -0.496020
N      2.02805      6.35563      2.73233         0.175654     -0.153493     -0.238200
N     -0.01597      8.44884      0.02619         0.185291     -1.902443     -0.496020
N      0.24939      7.23437      6.38263         0.175654      0.153493     -0.238200
N      1.79463      3.91884      3.32352        -0.185291     -1.902443      0.496020
N      1.52927      2.70437      3.96708        -0.175654      0.153493      0.238200
O      2.78419      1.88945      1.43894         0.107803      0.628664     -0.157966
O      2.55180      6.41945      1.61017        -0.107803      0.628664      0.157966
O      0.77313      7.17055      5.26047        -0.107803     -0.628664      0.157966
O      1.00553      2.64055      5.08923         0.107803     -0.628664     -0.157966
