16
# total energy = -99.21480075 eVC      2.50500      0.77660      1.86444         0.678999      3.303770     -1.256082
C      2.83098      5.30660      1.18467        -0.678999      3.303770      1.256082
C      1.05232      8.28340      4.83497        -0.678999     -3.303770      1.256082
C      0.72634      3.75340      5.51474         0.678999     -3.303770     -1.256082
N     -0.04705      0.59977     -0.01967         0.910993      1.723366     -0.587973
N     -0.15434      1.84251      0.53921        -1.065647     -0.137217      0.759108
N      1.82571      5.12977      3.36937        -0.910993      1.723366      0.587973
N      1.93300      6.37251      2.81050         1.065647     -0.137217     -0.759108
N      0.04705      8.46023      0.01967        -0.910993     -1.723366      0.587973
N      0.15434      7.21749      6.46079         1.065647      0.137217     -0.759108
N      1.73161      3.93023      3.33004         0.910993     -1.723366     -0.587973
N      1.62432      2.68749      3.88891        -1.065647      0.137217      0.759108
O      2.81232      1.90752      1.31752        -0.821347     -1.362799      2.346310
O      2.52367      6.43752      1.73159         0.821347     -1.362799     -2.346310
O      0.74500      7.15248      5.38188         0.821347      1.362799     -2.346310
O      1.03366      2.62248      4.96782        -0.821347      1.362799      2.346310
