36
# total energy = -216.70041715 eVH      4.02407      2.35343      2.28463         0.039581      0.017506     -0.015614
H      4.21537      1.56652     -0.04116        -0.008990      0.008018      0.008741
H      6.84821      0.92960      0.70559         0.032282     -0.049794     -0.014798
H      0.71354      0.61190      3.29334         0.008577     -0.039076     -0.005972
H      6.51194      0.84275      4.28563         0.017155     -0.017599     -0.019904
H      4.98702      1.70381      4.26037         0.045226      0.021550     -0.035527
H      4.02407      1.16257      9.46363         0.039581     -0.017506     -0.015614
H      4.21537      1.94948      7.13784        -0.008990     -0.008018      0.008741
H      6.84821      2.58640      7.88459         0.032282      0.049794     -0.014798
H      0.71354      2.90410     10.47234         0.008577      0.039076     -0.005972
H      6.51194      2.67325     11.46463         0.017155      0.017599     -0.019904
H      4.98702      1.81219     11.43937         0.045226     -0.021550     -0.035527
C      5.83472      1.37305      2.41665        -0.006620     -0.020853      0.077541
C      5.83472      2.14295      9.59565        -0.006620      0.020853      0.077541
N      1.59661      3.46629      5.43724        -0.026452      0.013819      0.014019
N      1.42879      3.14061      6.78260        -0.066745      0.036648     -0.060317
N      2.71084      3.01814      4.80947         0.011300     -0.016200      0.038789
N      4.73651      1.82094      1.77055        -0.046378     -0.065910      0.066502
N      6.89019      0.96050      1.72361        -0.080338      0.006685     -0.010602
N      5.79676      1.33611      3.75251         0.035956      0.037883     -0.016466
N      1.59661      0.04971     12.61624        -0.026452     -0.013819      0.014019
N      1.42879      0.37539     13.96160        -0.066745     -0.036648     -0.060317
N      2.71084      0.49786     11.98847         0.011300      0.016200      0.038789
N      4.73651      1.69506      8.94955        -0.046378      0.065910      0.066502
N      6.89019      2.55550      8.90261        -0.080338     -0.006685     -0.010602
N      5.79676      2.17989     10.93151         0.035956     -0.037883     -0.016466
O      2.25060      2.57057      7.50976         0.023441     -0.038328     -0.015052
O      0.29820      0.00095      7.17714         0.019645     -0.014842      0.029335
O      3.64291      2.36977      5.34127        -0.008176     -0.024154     -0.006686
O      2.71788      3.31631      3.58564         0.021459      0.002285     -0.046914
O      4.87290      2.14204      0.42374        -0.010923      0.066093      0.012925
O      2.25060      0.94543      0.33076         0.023441      0.038328     -0.015052
O      0.29820     -0.00095     -0.00186         0.019645      0.014842      0.029335
O      3.64291      1.14623     12.52027        -0.008176      0.024154     -0.006686
O      2.71788      0.19969     10.76464         0.021459     -0.002285     -0.046914
O      4.87290      1.37396      7.60274        -0.010923     -0.066093      0.012925
