16
# total energy = -96.48509650 eVH      1.44163      4.27263      1.38099        -0.571881     -0.571881     -0.002216
H      0.80318      3.63418     -0.04037        -0.240724     -0.240724     -1.903636
H      4.22037      1.38937      1.38099         0.571881      0.571881     -0.002216
H      4.85882      2.02782     -0.04037         0.240724      0.240724     -1.903636
H      4.27263      4.22037      3.33501        -0.571881      0.571881      0.002216
H      3.63418      4.85882      0.04037        -0.240724      0.240724      1.903636
H      1.38937      1.44163      3.33501         0.571881     -0.571881      0.002216
H      2.02782      0.80318      0.04037         0.240724     -0.240724      1.903636
C     -0.00000      2.83100      1.62336         0.000000     -0.000000      0.075289
C      2.83100      0.00000      3.09264         0.000000     -0.000000     -0.075289
N      0.77528      3.60628      0.93825         3.229114      3.229114      0.035854
N      4.88672      2.05572      0.93825        -3.229114     -3.229114      0.035854
N      3.60628      4.88672      3.77775         3.229114     -3.229114     -0.035854
N      2.05572      0.77528      3.77775        -3.229114      3.229114     -0.035854
O     -0.00000      2.83100      2.85305         0.000000      0.000000      3.609469
O      2.83100      0.00000      1.86295         0.000000      0.000000     -3.609469
