36
# total energy = -220.88959960 eVH      0.74728      2.40206      2.48569        -0.033806      0.011465     -0.019757
H      0.45024      3.58812      1.33608         0.001106     -0.004140     -0.005035
H      4.61255      7.65506      1.11085        -0.033806      0.011465     -0.019757
H      4.31551      8.84112     -0.03876         0.001106     -0.004140     -0.005035
H      6.98326      2.40206     -1.08937         0.033806      0.011465      0.019757
H      7.28031      3.58812      0.06024        -0.001106     -0.004140      0.005035
H      3.11799      7.65506      0.28547         0.033806      0.011465      0.019757
H      3.41503      8.84112      1.43508        -0.001106     -0.004140      0.005035
H      6.98326      8.10394     -1.08937         0.033806     -0.011465      0.019757
H      7.28031      6.91788      0.06024        -0.001106      0.004140      0.005035
H      3.11799      2.85094      0.28547         0.033806     -0.011465      0.019757
H      3.41503      1.66488      1.43508        -0.001106      0.004140      0.005035
H      0.74728      8.10394      2.48569        -0.033806     -0.011465     -0.019757
H      0.45024      6.91788      1.33608         0.001106      0.004140     -0.005035
H      4.61255      2.85094      1.11085        -0.033806     -0.011465     -0.019757
H      4.31551      1.66488     -0.03876         0.001106      0.004140     -0.005035
C      2.16191      5.25300     -0.19560         0.009812      0.000000      0.019490
C      3.35872      5.25300     -1.03674         0.006520      0.000000     -0.005880
C      6.02718      0.00000     -1.57044         0.009812      0.000000      0.019490
C      7.22399      0.00000     -2.41158         0.006520      0.000000     -0.005880
C      5.56864      5.25300      1.59192        -0.009812      0.000000     -0.019490
C      4.37182      5.25300      2.43306        -0.006520      0.000000      0.005880
C      1.70336      0.00000      2.96676        -0.009812     -0.000000     -0.019490
C      0.50655      0.00000      3.80790        -0.006520      0.000000      0.005880
N     -0.00000      3.00090      2.07300        -0.000000     -0.052515      0.000000
N      3.86527      8.25390      0.69816         0.000000     -0.052515      0.000000
N     -0.00000      7.50510      2.07300        -0.000000      0.052515      0.000000
N      3.86527      2.25210      0.69816         0.000000      0.052515     -0.000000
O      1.70311      6.39095      0.13150         0.026399      0.012169      0.027922
O      5.56838      1.13795     -1.24334         0.026399      0.012169      0.027922
O      6.02744      6.39095      1.26482        -0.026399      0.012169     -0.027922
O      2.16216      1.13795      2.63966        -0.026399      0.012169     -0.027922
O      6.02744      4.11505      1.26482        -0.026399     -0.012169     -0.027922
O      2.16216      9.36805      2.63966        -0.026399     -0.012169     -0.027922
O      1.70311      4.11505      0.13150         0.026399     -0.012169      0.027922
O      5.56838      9.36805     -1.24334         0.026399     -0.012169      0.027922
