12
# total energy = -75.81318226 eVC      2.39076      1.30750      0.94726        -1.256034      0.000000     -0.725594
C      3.01924      3.92250      2.73226         1.256034      0.000000     -0.725594
C      8.42924      3.92250      2.62274         1.256034      0.000000      0.725594
C      7.80076      1.30750      0.83774        -1.256034      0.000000      0.725594
N     -1.20824      1.30750     -0.23494        -0.206370      0.000000      0.868648
N      6.61824      3.92250      1.55006         0.206370     -0.000000      0.868648
N      1.20824      3.92250      0.23494         0.206370      0.000000     -0.868648
N      4.20176      1.30750      2.01994        -0.206370      0.000000     -0.868648
O      3.34243      1.30750      1.20067         1.421524      0.000000      1.595422
O      2.06757      3.92250      2.98567        -1.421524     -0.000000      1.595422
O      7.47757      3.92250      2.36933        -1.421524     -0.000000     -1.595422
O      8.75243      1.30750      0.58433         1.421524     -0.000000     -1.595422
