36
# total energy = -220.88732640 eVH      0.74728      2.40186      2.48715        -0.027671      0.003622     -0.032189
H      0.45012      3.58973      1.33387        -0.031863     -0.077248      0.077666
H      4.61255      7.65486      1.11231        -0.027671      0.003622     -0.032189
H      4.31539      8.84273     -0.04097        -0.031863     -0.077248      0.077666
H      6.98327      2.40186     -1.09084         0.027671      0.003622      0.032189
H      7.28042      3.58973      0.06245         0.031863     -0.077248     -0.077666
H      3.11799      7.65486      0.28401         0.027671      0.003622      0.032189
H      3.41515      8.84273      1.43729         0.031863     -0.077248     -0.077666
H      6.98327      8.10414     -1.09084         0.027671     -0.003622      0.032189
H      7.28042      6.91627      0.06245         0.031863      0.077248     -0.077666
H      3.11799      2.85114      0.28401         0.027671     -0.003622      0.032189
H      3.41515      1.66327      1.43729         0.031863      0.077248     -0.077666
H      0.74728      8.10414      2.48715        -0.027671     -0.003622     -0.032189
H      0.45012      6.91627      1.33387        -0.031863      0.077248      0.077666
H      4.61255      2.85114      1.11231        -0.027671     -0.003622     -0.032189
H      4.31539      1.66327     -0.04097        -0.031863      0.077248      0.077666
C      2.16215      5.25300     -0.19643        -0.031244      0.000000      0.041877
C      3.35863      5.25300     -1.03665         0.041444      0.000000     -0.029195
C      6.02743      0.00000     -1.57127        -0.031244      0.000000      0.041877
C      7.22390      0.00000     -2.41150         0.041444      0.000000     -0.029195
C      5.56839      5.25300      1.59275         0.031244      0.000000     -0.041877
C      4.37192      5.25300      2.43297        -0.041444      0.000000      0.029195
C      1.70312      0.00000      2.96759         0.031244      0.000000     -0.041877
C      0.50665      0.00000      3.80781        -0.041444      0.000000      0.029195
N     -0.00000      2.99909      2.07300        -0.000000      0.114888     -0.000000
N      3.86527      8.25209      0.69816        -0.000000      0.114888     -0.000000
N     -0.00000      7.50691      2.07300        -0.000000     -0.114888     -0.000000
N      3.86527      2.25391      0.69816        -0.000000     -0.114888     -0.000000
O      1.70206      6.39047      0.13091         0.036276      0.019171      0.020425
O      5.56733      1.13747     -1.24393         0.036276      0.019171      0.020425
O      6.02848      6.39047      1.26541        -0.036276      0.019171     -0.020425
O      2.16321      1.13747      2.64025        -0.036276      0.019171     -0.020425
O      6.02848      4.11553      1.26541        -0.036276     -0.019171     -0.020425
O      2.16321      9.36853      2.64025        -0.036276     -0.019171     -0.020425
O      1.70206      4.11553      0.13091         0.036276     -0.019171      0.020425
O      5.56733      9.36853     -1.24393         0.036276     -0.019171      0.020425
