40
# total energy = -222.63357868 eVH      6.15992      1.26079      6.08587        -0.074865      0.517406      0.397205
H      4.90237      3.02426      4.86634         1.205956      0.724435      0.651212
H      5.81935      4.18365      3.90373         0.561264     -0.097905      0.857500
H      5.87426      4.42215      5.77315        -0.405330     -0.999424     -1.084533
H      6.02958      1.37342      3.71127         2.224461      1.111072      0.101095
H      4.38328      4.23061      1.73317         0.074865     -0.517406      0.397205
H      5.64083      2.46714      0.51364        -1.205956     -0.724435      0.651212
H      4.72385      1.30775      8.25643        -0.561264      0.097905      0.857500
H      4.66894      1.06925      1.42045         0.405330      0.999424     -1.084533
H      4.51362      4.11798      8.06397        -2.224461     -1.111072      0.101095
H      2.64552      4.23061      1.73317        -0.074865     -0.517406      0.397205
H      1.38797      2.46714      0.51364         1.205956     -0.724435      0.651212
H      2.30495      1.30775      8.25643         0.561264      0.097905      0.857500
H      2.35986      1.06925      1.42045        -0.405330      0.999424     -1.084533
H      2.51518      4.11798      8.06397         2.224461     -1.111072      0.101095
H      0.86888      1.26079      6.08587         0.074865      0.517406      0.397205
H      2.12643      3.02426      4.86634        -1.205956      0.724435      0.651212
H      1.20945      4.18365      3.90373        -0.561264     -0.097905      0.857500
H      1.15454      4.42215      5.77315         0.405330     -0.999424     -1.084533
H      0.99922      1.37342      3.71127        -2.224461      1.111072      0.101095
H     -0.00000      2.57686      7.06908         0.000000     -0.204011      0.219508
H     -0.00000      2.67786      2.91182         0.000000      1.136580     -0.997973
H      3.51440      2.91454      2.71638         0.000000      0.204011      0.219508
H      3.51440      2.81354      7.26452         0.000000     -1.136580     -0.997973
C      5.85038      3.67263      4.90513        -2.436016      1.139528      0.493003
C      4.69282      1.81877      0.55243         2.436016     -1.139528      0.493003
C      2.33598      1.81877      0.55243        -2.436016     -1.139528      0.493003
C      1.17842      3.67263      4.90513         2.436016      1.139528      0.493003
C     -0.00000      4.81628      0.66532         0.000000     -0.065453     -7.091014
C     -0.00000      1.93857      6.18290         0.000000     -1.151281     -0.042975
C     -0.00000      2.03626      3.74769         0.000000     -4.598168      0.616109
C      3.51440      0.67512      5.01802         0.000000      0.065453     -7.091014
C      3.51440      3.55283      1.83020         0.000000      1.151281     -0.042975
C      3.51440      3.45514     -0.60501         0.000000      4.598168      0.616109
N     -0.00000      4.82775      1.82124         0.000000     -0.028868      4.298012
N     -0.00000      2.81601      5.01791         0.000000      0.079838     -2.531612
N      3.51440      0.66365      6.17394         0.000000      0.028868      4.298012
N      3.51440      2.67539      0.66521         0.000000     -0.079838     -2.531612
O     -0.00000      4.79791      8.08356         0.000000     -0.021290      2.698981
O      3.51440      0.69349      3.73086         0.000000      0.021290      2.698981
