16
# total energy = -101.52344674 eVC      2.53029      0.92306      1.81763        -0.049590      0.452213      0.020225
C      2.80570      5.45306      1.23148         0.049590      0.452213     -0.020225
C      1.02704      8.13694      4.88178         0.049590     -0.452213     -0.020225
C      0.75162      3.60694      5.46793        -0.049590     -0.452213      0.020225
N     -0.00599      0.62847     -0.06309         0.265295     -1.050555      0.627516
N     -0.19165      1.84028      0.56623        -2.400006     -0.133946      3.930223
N      1.78465      5.15847      3.41279        -0.265295     -1.050555     -0.627516
N      1.97031      6.37028      2.78347         2.400006     -0.133946     -3.930223
N      0.00599      8.43153      0.06309        -0.265295      1.050555     -0.627516
N      0.19165      7.21972      6.43377         2.400006      0.133946     -3.930223
N      1.77267      3.90153      3.28662         0.265295      1.050555      0.627516
N      1.58701      2.68972      3.91594        -2.400006      0.133946      3.930223
O      2.76713      1.86825      1.43705         1.841777      0.486956     -3.104596
O      2.56885      6.39825      1.61207        -1.841777      0.486956      3.104596
O      0.79019      7.19175      5.26236        -1.841777     -0.486956      3.104596
O      0.98847      2.66175      5.08734         1.841777     -0.486956     -3.104596
