16
# total energy = -103.51803591 eVC      2.45221      1.15908      1.98300         0.021550      0.615453      0.588137
C      2.88378      5.68908      1.06611        -0.021550      0.615453     -0.588137
C      1.10511      7.90092      4.71641        -0.021550     -0.615453     -0.588137
C      0.67355      3.37092      5.63329         0.021550     -0.615453      0.588137
N      0.08335      0.62480      0.19316        -2.475062     -2.367517     -1.163008
N     -0.42650      1.72926      0.68614         0.835187     -1.262399      2.157516
N      1.69531      5.15480      3.15654         2.475062     -2.367517      1.163008
N      2.20516      6.25926      2.66356        -0.835187     -1.262399     -2.157516
N     -0.08335      8.43520     -0.19316         2.475062      2.367517      1.163008
N      0.42650      7.33074      6.31386        -0.835187      1.262399     -2.157516
N      1.86201      3.90520      3.54287        -2.475062      2.367517     -1.163008
N      1.35216      2.80074      4.03584         0.835187      1.262399      2.157516
O      2.79438      2.06231      1.57558        -0.281827      0.691262     -1.217244
O      2.54161      6.59231      1.47353         0.281827      0.691262      1.217244
O      0.76294      6.99769      5.12383         0.281827     -0.691262      1.217244
O      1.01572      2.46769      5.22587        -0.281827     -0.691262     -1.217244
