30
# total energy = -128.55087782 eVH      0.73961      2.51247      4.82712         0.597667      0.178801     -0.392213
H      0.70197      2.49082      1.93920         0.478607     -0.416076      1.000359
H      0.16800     -0.09267      0.36552         1.926912      0.225354      5.027214
H      2.75339      9.17387     -0.51140        -0.597667      0.178801      0.392213
H      2.79103      9.15222      2.37652        -0.478607     -0.416076     -1.000359
H     -0.16800      6.56873     -0.36552        -1.926912      0.225354     -5.027214
H      2.75339     10.81033     -0.51140        -0.597667     -0.178801      0.392213
H      2.79103     10.83198      2.37652        -0.478607      0.416076     -1.000359
H     -0.16800      0.09267     -0.36552        -1.926912     -0.225354     -5.027214
H      0.73961      4.14893      4.82712         0.597667     -0.178801     -0.392213
H      0.70197      4.17058      1.93920         0.478607      0.416076      1.000359
H      0.16800      6.75407      0.36552         1.926912     -0.225354      5.027214
H      2.86201      3.33070      0.57256        -0.405155      0.000000     -0.473556
H      0.63099      9.99210      3.74317         0.405155      0.000000      0.473556
C      2.04001      0.34375      2.58480         2.735145      3.348084      3.988787
C      1.45299      7.00515      1.73092        -2.735145      3.348084     -3.988787
C      1.45299     12.97905      1.73092        -2.735145     -3.348084     -3.988787
C      2.04001      6.31765      2.58480         2.735145     -3.348084      3.988787
N      1.14699      3.33070      0.22043        -1.115146      0.000000     -1.551534
N      0.41990      3.33070      1.44141        -0.530771     -0.000000      1.004298
N      2.34601      9.99210      4.09530         1.115146      0.000000      1.551534
N      3.07310      9.99210      2.87431         0.530771      0.000000     -1.004298
O      2.07335      1.58386      2.96323         0.277749     -0.008269      0.333523
O      2.89469     12.63245      3.23317         2.471085      0.672031      2.849950
O      1.41965      8.24526      1.35249        -0.277749     -0.008269     -0.333523
O      0.59832      5.97105      1.08256        -2.471085      0.672031     -2.849950
O      1.41965     11.73894      1.35249        -0.277749      0.008269     -0.333523
O      0.59832      0.69035      1.08256        -2.471085     -0.672031     -2.849950
O      2.07335      5.07754      2.96323         0.277749      0.008269      0.333523
O      2.89469      7.35175      3.23317         2.471085     -0.672031      2.849950
