12
# total energy = -76.05587843 eVC      2.36403      1.30750      0.91919         0.466114      0.000000     -0.138170
C      3.04597      3.92250      2.70419        -0.466114      0.000000     -0.138170
C      8.45597      3.92250      2.65081        -0.466114      0.000000      0.138170
C      7.77403      1.30750      0.86581         0.466114      0.000000      0.138170
N     -1.17777      1.30750     -0.22807        -0.324724     -0.000000      0.808280
N      6.58777      3.92250      1.55693         0.324724      0.000000      0.808280
N      1.17777      3.92250      0.22807         0.324724      0.000000     -0.808280
N      4.23223      1.30750      2.01307        -0.324724     -0.000000     -0.808280
O      3.33599      1.30750      1.23574        -0.187872     -0.000000      0.948162
O      2.07401      3.92250      3.02074         0.187872      0.000000      0.948162
O      7.48401      3.92250      2.33426         0.187872      0.000000     -0.948162
O      8.74599      1.30750      0.54926        -0.187872     -0.000000     -0.948162
