16
# total energy = -79.48808522 eVC      2.84647      0.68568      1.27948         0.634773     -4.662592     -0.506445
C      2.48951      5.21568      1.76963        -0.634773     -4.662592      0.506445
C      0.71085      8.37432      5.41993        -0.634773      4.662592      0.506445
C      1.06781      3.84432      4.92978         0.634773      4.662592     -0.506445
N     -0.25329      0.79439      0.16186         1.293974    -12.590645     -2.443318
N      0.01582      1.94594      0.32687         0.965934      8.482779      1.178345
N      2.03195      5.32439      3.18784        -1.293974    -12.590645      2.443318
N      1.76284      6.47594      3.02284        -0.965934      8.482779     -1.178345
N      0.25329      8.26561     -0.16186        -1.293974     12.590645      2.443318
N     -0.01582      7.11406      6.67313        -0.965934     -8.482779     -1.178345
N      1.52537      3.73561      3.51156         1.293974     12.590645     -2.443318
N      1.79448      2.58406      3.67657         0.965934     -8.482779      1.178345
O      2.50256      1.39643      1.87578        -0.766111      5.151785      1.194609
O      2.83342      5.92643      1.17333         0.766111      5.151785     -1.194609
O      1.05476      7.66357      4.82363         0.766111     -5.151785     -1.194609
O      0.72390      3.13357      5.52607        -0.766111     -5.151785      1.194609
