16
# total energy = -108.80933493 eVC      2.34200      1.71782      2.35925        -1.344945     -0.677676      2.858545
C      2.99398      6.24782      0.68986         1.344945     -0.677676     -2.858545
C      1.21532      7.34218      4.34015         1.344945      0.677676     -2.858545
C      0.56334      2.81218      6.00955        -1.344945      0.677676      2.858545
N     -0.16341      0.43535      0.45401        -0.023156     -1.031588     -1.617096
N     -0.56928      1.43793      1.11051         0.619437      0.690595      0.376339
N      1.94207      4.96535      2.89570         0.023156     -1.031588      1.617096
N      2.34794      5.96793      2.23919        -0.619437      0.690595     -0.376339
N      0.16341      8.62465     -0.45401         0.023156      1.031588      1.617096
N      0.56928      7.62207      5.88949        -0.619437     -0.690595     -0.376339
N      1.61525      4.09465      3.80371        -0.023156      1.031588     -1.617096
N      1.20938      3.09207      4.46021         0.619437     -0.690595      0.376339
O      2.71053      2.30845      1.67423         0.768519      0.461574     -2.340273
O      2.62545      6.83845      1.37488        -0.768519      0.461574      2.340273
O      0.84679      6.75155      5.02518        -0.768519     -0.461574      2.340273
O      0.93187      2.22155      5.32453         0.768519     -0.461574     -2.340273
