38
# total energy = -218.65358940 eVH      3.52300      1.49868      2.12077         0.025032     -0.091591      0.040683
H      3.84282      2.82973      1.05574         0.035353     -0.081127     -0.022969
H      2.78648      3.01883      2.35789         0.002654      0.141286     -0.013575
H      2.34561      2.05470      1.02008        -0.103996     -0.083083      0.001224
H      3.22363     10.12193     -0.10595        -0.077707     -0.057407     -0.130814
H      4.49400      8.81032      2.12077        -0.025032      0.091591      0.040683
H      4.17418      7.47927      1.05574        -0.035353      0.081127     -0.022969
H      5.23052      7.29017      2.35789        -0.002654     -0.141286     -0.013575
H      5.67139      8.25430      1.02008         0.103996      0.083083      0.001224
H      4.79337      0.18707     -0.10595         0.077707      0.057407     -0.130814
H      0.48550      6.65318      1.61423        -0.025032     -0.091591     -0.040683
H      0.16568      7.98423      2.67926        -0.035353     -0.081127      0.022969
H      1.22202      8.17333      1.37711        -0.002654      0.141286      0.013575
H      1.66289      7.20920      2.71492         0.103996     -0.083083     -0.001224
H      0.78487      4.96743      0.10595         0.077707     -0.057407      0.130814
H      7.53150      3.65582      1.61423         0.025032      0.091591     -0.040683
H      7.85132      2.32477      2.67926         0.035353      0.081127      0.022969
H      6.79498      2.13567      1.37711         0.002654     -0.141286      0.013575
H      6.35411      3.09980      2.71492        -0.103996      0.083083     -0.001224
H      7.23213      5.34157      0.10595        -0.077707      0.057407      0.130814
C      0.74934      0.24141      0.26138        -0.145447      0.221435     -0.136406
C      7.26766     10.06759      0.26138         0.145447     -0.221435     -0.136406
C      3.25916      5.39591      3.47362         0.145447      0.221435      0.136406
C      4.75784      4.91309      3.47362        -0.145447     -0.221435      0.136406
N      3.12820      2.33900      1.64552         0.031390      0.042870     -0.129466
N      4.88880      7.97000      1.64552        -0.031390     -0.042870     -0.129466
N      0.88030      7.49350      2.08948        -0.031390      0.042870      0.129466
N      7.13670      2.81550      2.08948         0.031390     -0.042870      0.129466
O      1.63990      9.69304      0.52431         0.138854     -0.077569      0.045567
O      0.95859      1.46676     -0.01223         0.014152     -0.115831      0.054194
O      6.37710      0.61596      0.52431        -0.138854      0.077569      0.045567
O      7.05841      8.84224     -0.01223        -0.014152      0.115831      0.054194
O      2.36860      4.53854      3.21069        -0.138854     -0.077569     -0.045567
O      3.04991      6.62126      0.01223        -0.014152     -0.115831     -0.054194
O      5.64840      5.77046      3.21069         0.138854      0.077569     -0.045567
O      4.96709      3.68774      0.01223         0.014152      0.115831     -0.054194
O      4.00850      0.00000      3.03975        -0.000000      0.000000      0.190413
O     -0.00000      5.15450      0.69525        -0.000000      0.000000     -0.190413
