16
# total energy = -97.34084058 eVH      1.44328      4.27428      1.38557         0.062688      0.062688     -0.073366
H      0.79846      3.62946     -0.12484         0.008882      0.008882     -0.071498
H      4.21872      1.38772      1.38557        -0.062688     -0.062688     -0.073366
H      4.86354      2.03254     -0.12484        -0.008882     -0.008882     -0.071498
H      4.27428      4.21872      3.33043         0.062688     -0.062688      0.073366
H      3.62946      4.86354      0.12484         0.008882     -0.008882      0.071498
H      1.38772      1.44328      3.33043        -0.062688      0.062688      0.073366
H      2.03254      0.79846      0.12484        -0.008882      0.008882      0.071498
C     -0.00000      2.83100      1.60369        -0.000000     -0.000000     -0.229624
C      2.83100      0.00000      3.11231        -0.000000     -0.000000      0.229624
N      0.81251      3.64351      0.89254         0.041907      0.041907      0.144427
N      4.84949      2.01849      0.89254        -0.041907     -0.041907      0.144427
N      3.64351      4.84949      3.82346         0.041907     -0.041907     -0.144427
N      2.01849      0.81251      3.82346        -0.041907      0.041907     -0.144427
O     -0.00000      2.83100      2.87553        -0.000000     -0.000000      0.094120
O      2.83100      0.00000      1.84047        -0.000000     -0.000000     -0.094120
