56
# total energy = -353.13715103 eVH      5.15683      2.28163      4.07275         0.103748      0.084639     -0.089672
H      6.56843      1.99324      5.13646        -0.232040     -0.052904     -0.214108
H      3.08762      1.99433      4.86005        -0.203197      0.112862     -0.262315
H      2.78211      1.29139      6.43905        -0.055941     -0.030544     -0.027760
H      5.22451      5.55738      1.55343        -0.103748      0.084639      0.089672
H      3.81292      5.26899      0.48972         0.232040     -0.052904      0.214108
H      0.37283      5.27008      0.77338         0.203197      0.112862      0.262315
H      0.67834      4.56714     10.46848         0.055941     -0.030544      0.027760
H      1.76406      4.26987      7.19410        -0.103748     -0.084639      0.089672
H      0.35247      4.55826      6.13039         0.232040      0.052904      0.214108
H      3.83328      4.55717      6.40681         0.203197     -0.112862      0.262315
H      4.13879      5.26011      4.82780         0.055941      0.030544      0.027760
H      1.69639      0.99412      9.71343         0.103748     -0.084639     -0.089672
H      3.10798      1.28251     10.77713        -0.232040      0.052904     -0.214108
H      6.54806      1.28142     10.49347        -0.203197     -0.112862     -0.262315
H      6.24256      1.98436      0.79837        -0.055941      0.030544     -0.027760
C      5.31452      1.10219      7.19102         0.008296     -0.038137      0.171251
C      4.75119      1.57039      5.93262         0.088901      0.058439     -0.113755
C      5.06683      4.37794      9.70926        -0.008296     -0.038137     -0.171251
C      5.63016      4.84614     10.96766        -0.088901      0.058439      0.113755
C      1.60638      5.44931      4.07583        -0.008296      0.038137     -0.171251
C      2.16971      4.98111      5.33423        -0.088901     -0.058439      0.113755
C      1.85407      2.17356      1.55759         0.008296      0.038137      0.171251
C      1.29074      1.70536      0.29919         0.088901     -0.058439     -0.113755
N      6.68887      0.94345      7.42441         0.146442     -0.002179     -0.025857
N      4.45207      0.83074      8.27808        -0.099936      0.024626      0.143688
N      5.55819      1.96199      4.95515        -0.002565     -0.022403      0.146142
N      3.43352      1.67211      5.75616         0.319403     -0.150091      0.283139
N      3.69247      4.21920      9.47587        -0.146442     -0.002179      0.025857
N      5.92927      4.10649      8.62220         0.099936      0.024626     -0.143688
N      4.82315      5.23774      0.67103         0.002565     -0.022403     -0.146142
N      0.02692      4.94786     11.15136        -0.319403     -0.150091     -0.283139
N      0.23203      5.60805      3.84244        -0.146442      0.002179      0.025857
N      2.46882      5.72076      2.98878         0.099936     -0.024626     -0.143688
N      1.36270      4.58951      6.31171         0.002565      0.022403     -0.146142
N      3.48737      4.87939      5.51069        -0.319403      0.150091     -0.283139
N      3.22842      2.33230      1.79099         0.146442      0.002179     -0.025857
N      0.99162      2.44501      2.64465        -0.099936     -0.024626      0.143688
N      2.09775      1.31376     10.59582        -0.002565      0.022403      0.146142
N     -0.02692      1.60364      0.12274         0.319403      0.150091      0.283139
O      0.17405      0.37251      8.47974        -0.053590      0.140593     -0.187649
O      0.58288      1.32194      6.53734        -0.069083     -0.064242      0.209825
O      3.30641      0.37175      8.03262         0.130149      0.073310      0.067859
O      4.81652      1.08579      9.45295        -0.071460     -0.103594     -0.154600
O      3.28639      3.64826      8.42779         0.053590      0.140593      0.187649
O      2.87757      4.59769     10.37018         0.069083     -0.064242     -0.209825
O      0.15403      3.64750      8.87490        -0.130149      0.073310     -0.067859
O      5.56483      4.36154      7.44733         0.071460     -0.103594      0.154600
O      6.74684      6.17899      2.78711         0.053590     -0.140593      0.187649
O      6.33802      5.22956      4.72951         0.069083      0.064242     -0.209825
O      3.61448      6.17975      3.23423        -0.130149     -0.073310     -0.067859
O      2.10438      5.46571      1.81390         0.071460      0.103594      0.154600
O      3.63450      2.90324      2.83907        -0.053590     -0.140593     -0.187649
O      4.04333      1.95381      0.89667        -0.069083      0.064242      0.209825
O      6.76686      2.90400      2.39195         0.130149     -0.073310      0.067859
O      1.35607      2.18996      3.81953        -0.071460      0.103594     -0.154600
