38
# total energy = -218.63369441 eVH      3.52890      1.49876      2.11104         0.011777     -0.081790      0.057938
H      3.83869      2.84450      1.07390         0.143102     -0.032967     -0.147751
H      2.77906      3.01080      2.36918         0.010094      0.143093     -0.021295
H      2.34767      2.06187      1.01587        -0.066627     -0.083183      0.019749
H      3.20785     10.13328     -0.10883         0.020121     -0.083184      0.051284
H      4.48810      8.81024      2.11104        -0.011777      0.081790      0.057938
H      4.17831      7.46450      1.07390        -0.143102      0.032967     -0.147751
H      5.23794      7.29820      2.36918        -0.010094     -0.143093     -0.021295
H      5.66933      8.24713      1.01587         0.066627      0.083183      0.019749
H      4.80915      0.17572     -0.10883        -0.020121      0.083184      0.051284
H      0.47960      6.65326      1.62396        -0.011777     -0.081790     -0.057938
H      0.16981      7.99900      2.66110        -0.143102     -0.032967      0.147751
H      1.22944      8.16530      1.36582        -0.010094      0.143093      0.021295
H      1.66083      7.21637      2.71913         0.066627     -0.083183     -0.019749
H      0.80065      4.97878      0.10883        -0.020121     -0.083184     -0.051284
H      7.53740      3.65574      1.62396         0.011777      0.081790     -0.057938
H      7.84719      2.31000      2.66110         0.143102      0.032967      0.147751
H      6.78756      2.14370      1.36582         0.010094     -0.143093      0.021295
H      6.35617      3.09263      2.71913        -0.066627      0.083183     -0.019749
H      7.21635      5.33022      0.10883         0.020121      0.083184     -0.051284
C      0.75010      0.24222      0.26036         0.007099     -0.063488     -0.006654
C      7.26690     10.06678      0.26036        -0.007099      0.063488     -0.006654
C      3.25840      5.39672      3.47464        -0.007099     -0.063488      0.006654
C      4.75860      4.91228      3.47464         0.007099      0.063488      0.006654
N      3.12757      2.34323      1.64795        -0.080448     -0.063216     -0.028987
N      4.88943      7.96577      1.64795         0.080448      0.063216     -0.028987
N      0.88093      7.49773      2.08705         0.080448     -0.063216      0.028987
N      7.13607      2.81127      2.08705        -0.080448      0.063216      0.028987
O      1.64116      9.68997      0.53192        -0.033116      0.061118     -0.048848
O      0.96569      1.46417     -0.00577        -0.027972      0.015369     -0.020402
O      6.37584      0.61903      0.53192         0.033116     -0.061118     -0.048848
O      7.05131      8.84483     -0.00577         0.027972     -0.015369     -0.020402
O      2.36734      4.53547      3.20308         0.033116      0.061118      0.048848
O      3.04281      6.61867      0.00577         0.027972      0.015369      0.020402
O      5.64966      5.77353      3.20308        -0.033116     -0.061118      0.048848
O      4.97419      3.69033      0.00577        -0.027972     -0.015369      0.020402
O      4.00850      0.00000      3.05770         0.000000     -0.000000     -0.176879
O     -0.00000      5.15450      0.67730         0.000000     -0.000000      0.176879
