16
# total energy = -65.21537829 eVC      3.11913      1.36542      0.76608        -0.466437     -1.109032      0.874955
C      2.21685      5.89542      2.28303         0.466437     -1.109032     -0.874955
C      0.43819      7.69458      5.93332         0.466437      1.109032     -0.874955
C      1.34047      3.16458      4.41638        -0.466437      1.109032      0.874955
N      0.19614      0.63090      6.97090        -1.027106     -0.599015      0.350335
N      3.27021      2.64140      0.54920         0.511662     -1.193192     -0.890137
N      1.58253      5.16090      3.37880         1.027106     -0.599015     -0.350335
N      2.06577      7.17140      2.49991        -0.511662     -1.193192      0.890137
N      3.36119      8.42910     -0.27150         1.027106      0.599015     -0.350335
N      0.28711      6.41860      6.15021        -0.511662      1.193192      0.890137
N      1.97480      3.89910      3.32061        -1.027106      0.599015      0.350335
N      1.49155      1.88860      4.19950         0.511662      1.193192     -0.890137
O      2.55360      0.85403      1.75580        -0.083142      0.873964      0.191840
O      2.78238      5.38403      1.29331         0.083142      0.873964     -0.191840
O      1.00372      8.20597      4.94361         0.083142     -0.873964     -0.191840
O      0.77494      3.67597      5.40610        -0.083142     -0.873964      0.191840
