40
# total energy = -171.86588026 eVO      1.06237      2.45716      2.37296        -0.036193      0.179852      0.001828
O      1.06237      7.71716      0.45396        -0.036193      0.179852      0.001828
O      7.47587      2.45716      0.45396        -0.036193      0.179852      0.001828
O      7.47587      7.71716      2.37296        -0.036193      0.179852      0.001828
O     11.76463      8.06284      2.37296         0.036193     -0.179852      0.001828
O     11.76463      2.80284      0.45396         0.036193     -0.179852      0.001828
O      5.35113      8.06284      0.45396         0.036193     -0.179852      0.001828
O      5.35113      2.80284      2.37296         0.036193     -0.179852      0.001828
O      4.26912      0.17284      3.33246        -0.036193     -0.179852      0.001828
O      4.26912      5.43284      1.41346        -0.036193     -0.179852      0.001828
O     10.68262      0.17284      1.41346        -0.036193     -0.179852      0.001828
O     10.68262      5.43284      3.33246        -0.036193     -0.179852      0.001828
O      2.14438      5.08716      3.33246         0.036193      0.179852      0.001828
O      2.14438     10.34716      1.41346         0.036193      0.179852      0.001828
O      8.55788      5.08716      1.41346         0.036193      0.179852      0.001828
O      8.55788     10.34716      3.33246         0.036193      0.179852      0.001828
O     -0.00000      0.00000      3.18216        -0.000000     -0.000000      0.015868
O     -0.00000      5.26000      1.26316        -0.000000     -0.000000      0.015868
O      6.41350      0.00000      1.26316        -0.000000     -0.000000      0.015868
O      6.41350      5.26000      3.18216        -0.000000     -0.000000      0.015868
O      3.20675      2.63000      0.30366        -0.000000     -0.000000      0.015868
O      3.20675      7.89000      2.22266        -0.000000     -0.000000      0.015868
O      9.62025      2.63000      2.22266        -0.000000     -0.000000      0.015868
O      9.62025      7.89000      0.30366        -0.000000     -0.000000      0.015868
Au     12.23638      1.39702      1.90253        -0.017163     -0.012055     -0.009762
Au     12.23638      6.65702     -0.01647        -0.017163     -0.012055     -0.009762
Au      5.82288      1.39702     -0.01647        -0.017163     -0.012055     -0.009762
Au      5.82288      6.65702      1.90253        -0.017163     -0.012055     -0.009762
Au      0.59062      9.12298      1.90253         0.017163      0.012055     -0.009762
Au      0.59062      3.86298     -0.01647         0.017163      0.012055     -0.009762
Au      7.00412      9.12298     -0.01647         0.017163      0.012055     -0.009762
Au      7.00412      3.86298      1.90253         0.017163      0.012055     -0.009762
Au      2.61613      1.23298      2.86203        -0.017163      0.012055     -0.009762
Au      2.61613      6.49298      0.94303        -0.017163      0.012055     -0.009762
Au      9.02963      1.23298      0.94303        -0.017163      0.012055     -0.009762
Au      9.02963      6.49298      2.86203        -0.017163      0.012055     -0.009762
Au      3.79737      4.02702      2.86203         0.017163     -0.012055     -0.009762
Au      3.79737      9.28702      0.94303         0.017163     -0.012055     -0.009762
Au     10.21087      4.02702      0.94303         0.017163     -0.012055     -0.009762
Au     10.21087      9.28702      2.86203         0.017163     -0.012055     -0.009762
