40
# total energy = -220.30903153 eVH      6.23499      1.24594      6.06201        -1.449162      0.164230      0.409480
H      4.99705      3.10334      4.79597        -2.263843     -1.785036      1.219394
H      5.76977      4.09452      3.98315         0.839209      1.757720     -1.648111
H      5.90164      4.37816      5.71197        -0.471242      1.189893      1.559568
H      6.15075      1.49525      3.69134        -3.326001     -2.826527      0.151103
H      4.30821      4.24546      1.70931         1.449162     -0.164230      0.409480
H      5.54615      2.38806      0.44327         2.263843      1.785036      1.219394
H      4.77343      1.39688      8.33585        -0.839209     -1.757720     -1.648111
H      4.64156      1.11324      1.35927         0.471242     -1.189893      1.559568
H      4.39245      3.99615      8.04404         3.326001      2.826527      0.151103
H      2.72059      4.24546      1.70931        -1.449162     -0.164230      0.409480
H      1.48265      2.38806      0.44327        -2.263843      1.785036      1.219394
H      2.25537      1.39688      8.33585         0.839209     -1.757720     -1.648111
H      2.38724      1.11324      1.35927        -0.471242     -1.189893      1.559568
H      2.63635      3.99615      8.04404        -3.326001      2.826527      0.151103
H      0.79381      1.24594      6.06201         1.449162      0.164230      0.409480
H      2.03175      3.10334      4.79597         2.263843     -1.785036      1.219394
H      1.25903      4.09452      3.98315        -0.839209      1.757720     -1.648111
H      1.12716      4.37816      5.71197         0.471242      1.189893      1.559568
H      0.87805      1.49525      3.69134         3.326001     -2.826527      0.151103
H     -0.00000      2.59481      7.06086        -0.000000     -0.313523      0.142875
H     -0.00000      2.59202      2.99607        -0.000000      1.131532     -1.180735
H      3.51440      2.89659      2.70816        -0.000000      0.313523      0.142875
H      3.51440      2.89938      7.34877        -0.000000     -1.131532     -1.180735
C      5.83693      3.68294      4.94254         1.052615     -0.517402     -1.001485
C      4.70627      1.80846      0.58984        -1.052615      0.517402     -1.001485
C      2.32253      1.80846      0.58984         1.052615      0.517402     -1.001485
C      1.19187      3.68294      4.94254        -1.052615     -0.517402     -1.001485
C     -0.00000      4.81075      0.67377        -0.000000     -0.021648     -9.753079
C     -0.00000      1.95935      6.16971        -0.000000     -0.119927      0.192886
C     -0.00000      1.94349      3.84128        -0.000000      3.727789     -1.337507
C      3.51440      0.68065      5.02647        -0.000000      0.021648     -9.753079
C      3.51440      3.53205      1.81701        -0.000000      0.119927      0.192886
C      3.51440      3.54791     -0.51142        -0.000000     -3.727789     -1.337507
N     -0.00000      4.83164      1.80634        -0.000000      0.048128      7.397882
N     -0.00000      2.82630      4.97276        -0.000000     -0.339944      0.923469
N      3.51440      0.65976      6.15904        -0.000000     -0.048128      7.397882
N      3.51440      2.66510      0.62006        -0.000000      0.339944      0.923469
O     -0.00000      4.80529      8.09575        -0.000000     -0.153371      2.234312
O      3.51440      0.68611      3.74305        -0.000000      0.153371      2.234312
