12
# total energy = -76.48914522 eVC      2.36859      1.30750      0.87607        -0.003076     -0.000000      0.027159
C      3.04141      3.92250      2.66107         0.003076     -0.000000      0.027159
C      8.45141      3.92250      2.69393         0.003076      0.000000     -0.027159
C      7.77859      1.30750      0.90893        -0.003076      0.000000     -0.027159
N     -1.11394      1.30750     -0.12636        -0.068567      0.000000      0.095945
N      6.52394      3.92250      1.65864         0.068567      0.000000      0.095945
N      1.11394      3.92250      0.12636         0.068567      0.000000     -0.095945
N      4.29606      1.30750      1.91136        -0.068567      0.000000     -0.095945
O      3.24260      1.30750      1.38439         0.041076      0.000000      0.074783
O      2.16740      3.92250      3.16939        -0.041076      0.000000      0.074783
O      7.57740      3.92250      2.18561        -0.041076     -0.000000     -0.074783
O      8.65260      1.30750      0.40061         0.041076     -0.000000     -0.074783
