16
# total energy = -97.33501838 eVH      1.45409      4.28509      1.40017        -0.005742     -0.005742      0.004111
H      0.79626      3.62726     -0.09142         0.003557      0.003557     -0.034699
H      4.20791      1.37691      1.40017         0.005742      0.005742      0.004111
H      4.86574      2.03474     -0.09142        -0.003557     -0.003557     -0.034699
H      4.28509      4.20791      3.31583        -0.005742      0.005742     -0.004111
H      3.62726      4.86574      0.09142         0.003557     -0.003557      0.034699
H      1.37691      1.45409      3.31583         0.005742     -0.005742     -0.004111
H      2.03474      0.79626      0.09142        -0.003557      0.003557      0.034699
C     -0.00000      2.83100      1.63350         0.000000      0.000000      0.036810
C      2.83100      0.00000      3.08250         0.000000      0.000000     -0.036810
N      0.81445      3.64545      0.92727         0.007160      0.007160     -0.089014
N      4.84755      2.01655      0.92727        -0.007160     -0.007160     -0.089014
N      3.64545      4.84755      3.78873         0.007160     -0.007160      0.089014
N      2.01655      0.81445      3.78873        -0.007160      0.007160      0.089014
O     -0.00000      2.83100      2.90833        -0.000000      0.000000      0.004565
O      2.83100      0.00000      1.80767         0.000000      0.000000     -0.004565
