36
# total energy = -220.89021515 eVH      0.74629      2.40249      2.48456         0.010962     -0.027345      0.011473
H      0.45030      3.58739      1.33678         0.004810      0.003332     -0.019059
H      4.61156      7.65549      1.10972         0.010962     -0.027345      0.011473
H      4.31557      8.84039     -0.03807         0.004810      0.003332     -0.019059
H      6.98425      2.40249     -1.08824        -0.010962     -0.027345     -0.011473
H      7.28024      3.58739      0.05954        -0.004810      0.003332      0.019059
H      3.11898      7.65549      0.28660        -0.010962     -0.027345     -0.011473
H      3.41497      8.84039      1.43438        -0.004810      0.003332      0.019059
H      6.98425      8.10351     -1.08824        -0.010962      0.027345     -0.011473
H      7.28024      6.91861      0.05954        -0.004810     -0.003332      0.019059
H      3.11898      2.85051      0.28660        -0.010962      0.027345     -0.011473
H      3.41497      1.66561      1.43438        -0.004810     -0.003332      0.019059
H      0.74629      8.10351      2.48456         0.010962      0.027345      0.011473
H      0.45030      6.91861      1.33678         0.004810     -0.003332     -0.019059
H      4.61156      2.85051      1.10972         0.010962      0.027345      0.011473
H      4.31557      1.66561     -0.03807         0.004810     -0.003332     -0.019059
C      2.16210      5.25300     -0.19474         0.024229      0.000000      0.013539
C      3.35878      5.25300     -1.03683        -0.017101      0.000000      0.010585
C      6.02737      0.00000     -1.56958         0.024229      0.000000      0.013539
C      7.22405      0.00000     -2.41167        -0.017101      0.000000      0.010585
C      5.56844      5.25300      1.59106        -0.024229      0.000000     -0.013539
C      4.37176      5.25300      2.43315         0.017101      0.000000     -0.010585
C      1.70317      0.00000      2.96590        -0.024229      0.000000     -0.013539
C      0.50649      0.00000      3.80799         0.017101      0.000000     -0.010585
N     -0.00000      3.00006      2.07300         0.000000      0.013541      0.000000
N      3.86527      8.25306      0.69816         0.000000      0.013541      0.000000
N     -0.00000      7.50594      2.07300         0.000000     -0.013541      0.000000
N      3.86527      2.25294      0.69816         0.000000     -0.013541      0.000000
O      1.70426      6.39148      0.13251         0.019397     -0.008067      0.028322
O      5.56953      1.13848     -1.24233         0.019397     -0.008067      0.028322
O      6.02629      6.39148      1.26381        -0.019397     -0.008067     -0.028322
O      2.16101      1.13848      2.63865        -0.019397     -0.008067     -0.028322
O      6.02629      4.11452      1.26381        -0.019397      0.008067     -0.028322
O      2.16101      9.36752      2.63865        -0.019397      0.008067     -0.028322
O      1.70426      4.11452      0.13251         0.019397      0.008067      0.028322
O      5.56953      9.36752     -1.24233         0.019397      0.008067      0.028322
