40
# total energy = -224.72617747 eVH      6.12540      1.30516      6.12913        -0.047235     -0.029638     -0.041277
H      4.92569      3.04531      4.94858        -0.036596     -0.064218     -0.019035
H      5.85335      4.23146      3.93753        -0.090895     -0.082204      0.237308
H      5.81986      4.37508      5.73538         0.016809      0.094335      0.241736
H      6.13097      1.35490      3.71129        -0.080516     -0.102155     -0.088640
H      4.41780      4.18624      1.77643         0.047235      0.029638     -0.041277
H      5.61751      2.44609      0.59588         0.036596      0.064218     -0.019035
H      4.68985      1.25994      8.29023         0.090895      0.082204      0.237308
H      4.72334      1.11632      1.38268        -0.016809     -0.094335      0.241736
H      4.41223      4.13650      8.06399         0.080516      0.102155     -0.088640
H      2.61100      4.18624      1.77643        -0.047235      0.029638     -0.041277
H      1.41129      2.44609      0.59588        -0.036596      0.064218     -0.019035
H      2.33895      1.25994      8.29023        -0.090895      0.082204      0.237308
H      2.30546      1.11632      1.38268         0.016809     -0.094335      0.241736
H      2.61657      4.13650      8.06399        -0.080516      0.102155     -0.088640
H      0.90340      1.30516      6.12913         0.047235     -0.029638     -0.041277
H      2.10311      3.04531      4.94858         0.036596     -0.064218     -0.019035
H      1.17545      4.23146      3.93753         0.090895     -0.082204      0.237308
H      1.20894      4.37508      5.73538        -0.016809      0.094335      0.241736
H      0.89783      1.35490      3.71129         0.080516     -0.102155     -0.088640
H     -0.00000      2.54075      7.05229        -0.000000      0.140136     -0.029699
H     -0.00000      2.68042      2.86216        -0.000000     -0.198879     -0.032266
H      3.51440      2.95065      2.69959        -0.000000     -0.140136     -0.029699
H      3.51440      2.81098      7.21486        -0.000000      0.198879     -0.032266
C      5.81145      3.68358      4.89591         0.011680      0.178736     -0.241896
C      4.73175      1.80782      0.54321        -0.011680     -0.178736     -0.241896
C      2.29705      1.80782      0.54321         0.011680     -0.178736     -0.241896
C      1.21735      3.68358      4.89591        -0.011680      0.178736     -0.241896
C     -0.00000      4.81075      0.62939        -0.000000     -0.050525     -0.574011
C     -0.00000      1.92252      6.14905        -0.000000      0.184687      0.147014
C     -0.00000      1.97434      3.70629        -0.000000      0.097096     -0.025277
C      3.51440      0.68065      4.98209        -0.000000      0.050525     -0.574011
C      3.51440      3.56888      1.79635        -0.000000     -0.184687      0.147014
C      3.51440      3.51706     -0.64641        -0.000000     -0.097096     -0.025277
N     -0.00000      4.81602      1.82449        -0.000000     -0.053296      0.603148
N     -0.00000      2.81726      4.94681        -0.000000     -0.192307     -0.187533
N      3.51440      0.67538      6.17719        -0.000000      0.053296      0.603148
N      3.51440      2.67414      0.59411        -0.000000      0.192307     -0.187533
O     -0.00000      4.79207      8.10435        -0.000000     -0.001283     -0.077767
O      3.51440      0.69933      3.75165        -0.000000      0.001283     -0.077767
