12
# total energy = -75.78917277 eVC      2.39678      1.30750      0.94995        -1.532202      0.000000     -0.827304
C      3.01322      3.92250      2.73495         1.532202     -0.000000     -0.827304
C      8.42322      3.92250      2.62005         1.532202      0.000000      0.827304
C      7.80678      1.30750      0.83505        -1.532202     -0.000000      0.827304
N     -1.21454      1.30750     -0.23049         0.477599     -0.000000      0.239769
N      6.62454      3.92250      1.55451        -0.477599      0.000000      0.239769
N      1.21454      3.92250      0.23049        -0.477599     -0.000000     -0.239769
N      4.19546      1.30750      2.01549         0.477599     -0.000000     -0.239769
O      3.34285      1.30750      1.20241         1.008521     -0.000000      1.069030
O      2.06715      3.92250      2.98741        -1.008521      0.000000      1.069030
O      7.47715      3.92250      2.36759        -1.008521     -0.000000     -1.069030
O      8.75285      1.30750      0.58259         1.008521      0.000000     -1.069030
