12
# total energy = -76.47958883 eVC      2.39070      1.30750      0.84560        -0.004696     -0.000000      0.100334
C      3.01930      3.92250      2.63060         0.004696     -0.000000      0.100334
C      8.42930      3.92250      2.72440         0.004696     -0.000000     -0.100334
C      7.80070      1.30750      0.93940        -0.004696     -0.000000     -0.100334
N     -1.11423      1.30750     -0.12823        -0.028024     -0.000000      0.007705
N      6.52423      3.92250      1.65677         0.028024     -0.000000      0.007705
N      1.11423      3.92250      0.12823         0.028024     -0.000000     -0.007705
N      4.29577      1.30750      1.91323        -0.028024     -0.000000     -0.007705
O      3.23090      1.30750      1.40991         0.012726      0.000000     -0.086126
O      2.17910      3.92250      3.19491        -0.012726     -0.000000     -0.086126
O      7.58910      3.92250      2.16009        -0.012726      0.000000      0.086126
O      8.64090      1.30750      0.37509         0.012726      0.000000      0.086126
