16
# total energy = -63.38919868 eVC      3.10281      1.31992      0.79719        -0.586387     -0.900510      0.949201
C      2.23317      5.84992      2.25192         0.586387     -0.900510     -0.949201
C      0.45451      7.74008      5.90222         0.586387      0.900510     -0.949201
C      1.32415      3.21008      4.44748        -0.586387      0.900510      0.949201
N      0.21184      0.80119      6.98076        -1.533043     -4.145884      0.208830
N      3.28804      2.60071      0.51866         0.788244     -1.953555     -1.324624
N      1.56682      5.33119      3.36894         1.533043     -4.145884     -0.208830
N      2.04794      7.13071      2.53045        -0.788244     -1.953555      1.324624
N      3.34548      8.25881     -0.28135         1.533043      4.145884     -0.208830
N      0.26928      6.45929      6.18075        -0.788244      1.953555      1.324624
N      1.99050      3.72881      3.33046        -1.533043      4.145884      0.208830
N      1.50938      1.92929      4.16896         0.788244      1.953555     -1.324624
O      2.55145      0.89149      1.76290        -0.241470      0.602095      0.298942
O      2.78454      5.42149      1.28621         0.241470      0.602095     -0.298942
O      1.00588      8.16851      4.93651         0.241470     -0.602095     -0.298942
O      0.77278      3.63851      5.41320        -0.241470     -0.602095      0.298942
