18
# total energy = -101.78533157 eVH      0.63546      4.22612      9.02498        -0.001133      0.030657      0.062445
H      0.56946      1.22737      0.20232         0.015055      0.040253     -0.046837
H      3.24733      0.49264      8.15649        -0.024858      0.049921     -0.047445
H      3.17594      0.16264      0.72466         0.001096     -0.003558     -0.040223
H      1.87562      2.56122      6.98299        -0.003658     -0.037130     -0.015710
H      0.63546      0.45288      4.46898        -0.001133     -0.030657      0.062445
H      0.56946      3.45163      4.75832         0.015055     -0.040253     -0.046837
H      3.24733      4.18636      3.60049        -0.024858     -0.049921     -0.047445
H      3.17594      4.51636      5.28066         0.001096      0.003558     -0.040223
H      1.87562      2.11778      2.42699        -0.003658      0.037130     -0.015710
C      1.90243      1.72678      6.24338        -0.021349      0.060309     -0.028368
C      1.90243      2.95222      1.68738        -0.021349     -0.060309     -0.028368
N     -0.00012      0.37031     -0.00391         0.025696     -0.035154      0.044249
N     -0.00012      4.30869      4.55209         0.025696      0.035154      0.044249
O      1.50903      1.97714      5.06127        -0.041980      0.008289      0.088142
O      2.32737      0.60042      6.65597         0.051132      0.051964     -0.016253
O      1.50903      2.70186      0.50527        -0.041980     -0.008289      0.088142
O      2.32737      4.07858      2.09997         0.051132     -0.051964     -0.016253
