16
# total energy = -97.35085649 eVH      1.45051      4.28151      1.35922         0.019266      0.019266      0.009705
H      0.80494      3.63594     -0.14819        -0.000252     -0.000252      0.028570
H      4.21149      1.38049      1.35922        -0.019266     -0.019266      0.009705
H      4.85706      2.02606     -0.14819         0.000252      0.000252      0.028570
H      4.28151      4.21149      3.35678         0.019266     -0.019266     -0.009705
H      3.63594      4.85706      0.14819        -0.000252      0.000252     -0.028570
H      1.38049      1.45051      3.35678        -0.019266      0.019266     -0.009705
H      2.02606      0.80494      0.14819         0.000252     -0.000252     -0.028570
C     -0.00000      2.83100      1.57596         0.000000      0.000000      0.066528
C      2.83100      0.00000      3.14004         0.000000      0.000000     -0.066528
N      0.81682      3.64782      0.87193        -0.049107     -0.049107     -0.104541
N      4.84518      2.01418      0.87193         0.049107      0.049107     -0.104541
N      3.64782      4.84518      3.84407        -0.049107      0.049107      0.104541
N      2.01418      0.81682      3.84407         0.049107     -0.049107      0.104541
O     -0.00000      2.83100      2.85030         0.000000     -0.000000      0.021072
O      2.83100      0.00000      1.86570         0.000000     -0.000000     -0.021072
