40
# total energy = -224.55110983 eVH      6.13315      1.28159      6.11000         0.019091      0.207346      0.188126
H      4.92129      3.03578      4.91508         0.012246      0.144266      0.248821
H      5.84805      4.20363      3.92636        -0.054882      0.253616      0.095796
H      5.84499      4.39353      5.74688        -0.240969     -0.167536     -0.134089
H      6.10180      1.37984      3.72174         0.098079     -0.380781     -0.151078
H      4.41005      4.20981      1.75730        -0.019091     -0.207346      0.188126
H      5.62191      2.45562      0.56238        -0.012246     -0.144266      0.248821
H      4.69515      1.28777      8.27906         0.054882     -0.253616      0.095796
H      4.69821      1.09787      1.39418         0.240969      0.167536     -0.134089
H      4.44140      4.11156      8.07444        -0.098079      0.380781     -0.151078
H      2.61875      4.20981      1.75730         0.019091     -0.207346      0.188126
H      1.40689      2.45562      0.56238         0.012246     -0.144266      0.248821
H      2.33365      1.28777      8.27906        -0.054882     -0.253616      0.095796
H      2.33059      1.09787      1.39418        -0.240969      0.167536     -0.134089
H      2.58740      4.11156      8.07444         0.098079      0.380781     -0.151078
H      0.89565      1.28159      6.11000        -0.019091      0.207346      0.188126
H      2.10751      3.03578      4.91508        -0.012246      0.144266      0.248821
H      1.18075      4.20363      3.92636         0.054882      0.253616      0.095796
H      1.18381      4.39353      5.74688         0.240969     -0.167536     -0.134089
H      0.92700      1.37984      3.72174        -0.098079     -0.380781     -0.151078
H     -0.00000      2.55630      7.07111         0.000000     -0.161792     -0.199128
H     -0.00000      2.69959      2.88700         0.000000     -0.584344      0.047528
H      3.51440      2.93510      2.71841         0.000000      0.161792     -0.199128
H      3.51440      2.79181      7.23970         0.000000      0.584344      0.047528
C      5.79732      3.69709      4.89719         0.533680     -0.377715      0.000748
C      4.74588      1.79431      0.54449        -0.533680      0.377715      0.000748
C      2.28292      1.79431      0.54449         0.533680      0.377715      0.000748
C      1.23148      3.69709      4.89719        -0.533680     -0.377715      0.000748
C     -0.00000      4.81646      0.62876         0.000000     -0.070565      0.397522
C     -0.00000      1.91864      6.17226         0.000000      0.196953     -0.442281
C     -0.00000      1.95236      3.71275         0.000000      1.175177     -0.051781
C      3.51440      0.67494      4.98146         0.000000      0.070565      0.397522
C      3.51440      3.57276      1.81956         0.000000     -0.196953     -0.442281
C      3.51440      3.53904     -0.63995         0.000000     -1.175177     -0.051781
N     -0.00000      4.82309      1.83960         0.000000     -0.064482     -0.910717
N     -0.00000      2.81258      4.94788         0.000000      0.048585      0.205658
N      3.51440      0.66831      6.19230         0.000000      0.064482     -0.910717
N      3.51440      2.67882      0.59518         0.000000     -0.048585      0.205658
O     -0.00000      4.79407      8.09662         0.000000     -0.004659      0.456549
O      3.51440      0.69733      3.74392         0.000000      0.004659      0.456549
