40
# total energy = -224.77169466 eVH      6.12692      1.31333      6.12832        -0.061293     -0.031912      0.016910
H      4.92885      3.04580      4.95038        -0.052438     -0.035454     -0.010956
H      5.84087      4.23783      3.95300        -0.028761      0.091165     -0.053593
H      5.81807      4.37419      5.75336         0.055140     -0.045804      0.051197
H      6.13276      1.33955      3.69424        -0.003632      0.013755      0.018681
H      4.41628      4.17807      1.77562         0.061293      0.031912      0.016910
H      5.61435      2.44560      0.59768         0.052438      0.035454     -0.010956
H      4.70233      1.25357      8.30570         0.028761     -0.091165     -0.053593
H      4.72513      1.11721      1.40066        -0.055140      0.045804      0.051197
H      4.41044      4.15185      8.04694         0.003632     -0.013755      0.018681
H      2.61252      4.17807      1.77562        -0.061293      0.031912      0.016910
H      1.41445      2.44560      0.59768        -0.052438      0.035454     -0.010956
H      2.32647      1.25357      8.30570        -0.028761     -0.091165     -0.053593
H      2.30367      1.11721      1.40066         0.055140      0.045804      0.051197
H      2.61836      4.15185      8.04694        -0.003632     -0.013755      0.018681
H      0.90188      1.31333      6.12832         0.061293     -0.031912      0.016910
H      2.09995      3.04580      4.95038         0.052438     -0.035454     -0.010956
H      1.18793      4.23783      3.95300         0.028761      0.091165     -0.053593
H      1.21073      4.37419      5.75336        -0.055140     -0.045804      0.051197
H      0.89604      1.33955      3.69424         0.003632      0.013755      0.018681
H     -0.00000      2.56133      7.04317         0.000000      0.192444      0.106827
H     -0.00000      2.65191      2.84459         0.000000     -0.012371     -0.016625
H      3.51440      2.93007      2.69047         0.000000     -0.192444      0.106827
H      3.51440      2.83949      7.19729         0.000000      0.012371     -0.016625
C      5.81091      3.69032      4.89897        -0.014514     -0.068377      0.154549
C      4.73229      1.80108      0.54627         0.014514      0.068377      0.154549
C      2.29651      1.80108      0.54627        -0.014514      0.068377      0.154549
C      1.21789      3.69032      4.89897         0.014514     -0.068377      0.154549
C     -0.00000      4.80212      0.62672         0.000000     -0.004827     -0.496660
C     -0.00000      1.93219      6.15345         0.000000      0.049066     -0.156872
C     -0.00000      1.96919      3.70326         0.000000     -0.216852     -0.108599
C      3.51440      0.68928      4.97942         0.000000      0.004827     -0.496660
C      3.51440      3.55921      1.80075         0.000000     -0.049066     -0.156872
C      3.51440      3.52221     -0.64944         0.000000      0.216852     -0.108599
N     -0.00000      4.80637      1.82541         0.000000     -0.066758      0.224344
N     -0.00000      2.81329      4.93989         0.000000      0.159632     -0.121591
N      3.51440      0.68503      6.17811         0.000000      0.066758      0.224344
N      3.51440      2.67811      0.58719         0.000000     -0.159632     -0.121591
O     -0.00000      4.79188      8.09742         0.000000     -0.017828      0.215598
O      3.51440      0.69952      3.74472         0.000000      0.017828      0.215598
