38
# total energy = -218.71015789 eVH      3.50626      1.49737      2.14071        -0.028711      0.003150     -0.027280
H      3.84751      2.76479      1.00857         0.006407     -0.009859     -0.008915
H      2.81430      3.05841      2.30716        -0.011857      0.010988     -0.000854
H      2.32505      2.02876      1.02917        -0.057017     -0.025936     -0.026025
H      3.22036     10.09641     -0.12679        -0.027675      0.020675      0.015888
H      4.51074      8.81163      2.14071         0.028711     -0.003150     -0.027280
H      4.16949      7.54421      1.00857        -0.006407      0.009859     -0.008915
H      5.20270      7.25059      2.30716         0.011857     -0.010988     -0.000854
H      5.69195      8.28024      1.02917         0.057017      0.025936     -0.026025
H      4.79664      0.21259     -0.12679         0.027675     -0.020675      0.015888
H      0.50224      6.65187      1.59429         0.028711      0.003150      0.027280
H      0.16099      7.91929      2.72643        -0.006407     -0.009859      0.008915
H      1.19420      8.21291      1.42784         0.011857      0.010988      0.000854
H      1.68345      7.18326      2.70583         0.057017     -0.025936      0.026025
H      0.78814      4.94191      0.12679         0.027675      0.020675     -0.015888
H      7.51476      3.65713      1.59429        -0.028711     -0.003150      0.027280
H      7.85601      2.38971      2.72643         0.006407      0.009859      0.008915
H      6.82280      2.09609      1.42784        -0.011857     -0.010988      0.000854
H      6.33355      3.12574      2.70583        -0.057017      0.025936      0.026025
H      7.22886      5.36709      0.12679        -0.027675     -0.020675     -0.015888
C      0.74725      0.24678      0.24339         0.023760     -0.070120      0.002006
C      7.26975     10.06222      0.24339        -0.023760      0.070120      0.002006
C      3.26125      5.40128      3.49161        -0.023760     -0.070120     -0.002006
C      4.75575      4.90772      3.49161         0.023760      0.070120     -0.002006
N      3.12500      2.32681      1.62772         0.070270      0.008361      0.006843
N      4.89200      7.98219      1.62772        -0.070270     -0.008361      0.006843
N      0.88350      7.48131      2.10728        -0.070270      0.008361     -0.006843
N      7.13350      2.82769      2.10728         0.070270     -0.008361     -0.006843
O      1.63659      9.69382      0.51593         0.023669     -0.012038      0.004303
O      0.96264      1.47119     -0.01256        -0.028562     -0.021731      0.010085
O      6.38041      0.61518      0.51593        -0.023669      0.012038      0.004303
O      7.05436      8.83781     -0.01256         0.028562      0.021731      0.010085
O      2.37191      4.53932      3.21907        -0.023669     -0.012038     -0.004303
O      3.04586      6.62569      0.01256         0.028562     -0.021731     -0.010085
O      5.64509      5.76968      3.21907         0.023669      0.012038     -0.004303
O      4.97114      3.68331      0.01256        -0.028562      0.021731     -0.010085
O      4.00850      0.00000      3.03355         0.000000      0.000000     -0.015907
O      0.00000      5.15450      0.70145         0.000000      0.000000      0.015907
