12
# total energy = -76.48200188 eVC      2.38910      1.30750      0.85318        -0.153143     -0.000000     -0.009259
C      3.02090      3.92250      2.63818         0.153143      0.000000     -0.009259
C      8.43090      3.92250      2.71682         0.153143     -0.000000      0.009259
C      7.79910      1.30750      0.93182        -0.153143      0.000000      0.009259
N     -1.11647      1.30750     -0.12666         0.157015     -0.000000     -0.070581
N      6.52647      3.92250      1.65834        -0.157015     -0.000000     -0.070581
N      1.11647      3.92250      0.12666        -0.157015     -0.000000      0.070581
N      4.29353      1.30750      1.91166         0.157015      0.000000      0.070581
O      3.23281      1.30750      1.40450        -0.026771     -0.000000     -0.055064
O      2.17719      3.92250      3.18950         0.026771      0.000000     -0.055064
O      7.58719      3.92250      2.16550         0.026771     -0.000000      0.055064
O      8.64281      1.30750      0.38050        -0.026771     -0.000000      0.055064
