40
# total energy = -50.84245078 eVH      5.34165      0.62774      3.94684         1.303891      0.159168      1.026431
H      5.04340      0.89021      1.52303         0.677317      0.573325     -0.696605
H      7.15485      2.95981      3.94684        -1.303891     -0.159168      1.026431
H      7.45310      2.69734      1.52303        -0.677317     -0.573325     -0.696605
H      2.98935      4.21529      1.51536        -1.303891      0.159168     -1.026431
H      3.28760      4.47776      3.93917        -0.677317      0.573325      0.696605
H      1.17615      6.54736      1.51536         1.303891     -0.159168     -1.026431
H      0.87790      6.28489      3.93917         0.677317     -0.573325      0.696605
H      2.98935      6.54736      1.51536        -1.303891     -0.159168     -1.026431
H      3.28760      6.28489      3.93917        -0.677317     -0.573325      0.696605
H      1.17615      4.21529      1.51536         1.303891      0.159168     -1.026431
H      0.87790      4.47776      3.93917         0.677317      0.573325      0.696605
H      5.34165      2.95981      3.94684         1.303891     -0.159168      1.026431
H      5.04340      2.69734      1.52303         0.677317     -0.573325     -0.696605
H      7.15485      0.62774      3.94684        -1.303891      0.159168      1.026431
H      7.45310      0.89021      1.52303        -0.677317      0.573325     -0.696605
H      6.24825      6.83455      5.27893         0.000000      2.554087     -1.632160
H      6.24825      3.92810      5.27893         0.000000     -2.554087     -1.632160
H      2.08275      3.24700      0.18327        -0.000000      2.554087      1.632160
H      2.08275      0.34055      0.18327        -0.000000     -2.554087      1.632160
H      4.11984      1.79377      0.18341         2.801540     -0.000000      2.335331
H      0.04566      1.79377      0.18341        -2.801540      0.000000      2.335331
H      4.21116      5.38132      5.27879        -2.801540      0.000000     -2.335331
H     -0.04566      5.38132      5.27879         2.801540     -0.000000     -2.335331
C      6.24825      0.71401      4.62477         0.000000     -8.049529     -2.236094
C      6.24825      2.87354      4.62477         0.000000      8.049529     -2.236094
C      2.08275      4.30156      0.83743        -0.000000     -8.049529      2.236094
C      2.08275      6.46109      0.83743        -0.000000      8.049529      2.236094
C      5.15967      1.79377      0.86045        -8.081428     -0.000000      2.049529
C      7.33683      1.79377      0.86045         8.081428     -0.000000      2.049529
C      3.17133      5.38132      4.60175         8.081428     -0.000000     -2.049529
C      0.99417      5.38132      4.60175        -8.081428      0.000000     -2.049529
N      6.24825      1.79377      0.01994         0.000000     -0.000000      0.408445
N      2.08275      5.38132      5.44226         0.000000      0.000000     -0.408445
N      2.08275      1.79377      2.54570         0.000000     -0.000000     -6.140277
N      6.24825      5.38132      2.91650        -0.000000     -0.000000      6.140277
O      3.60934      1.79377      3.80521         2.184044      0.000000      1.921399
O      0.55616      1.79377      3.80521        -2.184044      0.000000      1.921399
O      4.72166      5.38132      1.65699        -2.184044     -0.000000     -1.921399
O      7.77484      5.38132      1.65699         2.184044      0.000000     -1.921399
