38
# total energy = -218.70869479 eVH      3.50698      1.49807      2.13894         0.000033     -0.039170      0.016748
H      3.84806      2.76867      1.01201         0.017628     -0.009076     -0.026513
H      2.81316      3.05695      2.30920        -0.012557      0.022897      0.019590
H      2.32663      2.02868      1.03058        -0.038565     -0.011851     -0.022714
H      3.21995     10.09318     -0.12677        -0.015554      0.035998      0.025065
H      4.51002      8.81093      2.13894        -0.000033      0.039170      0.016748
H      4.16894      7.54033      1.01201        -0.017628      0.009076     -0.026513
H      5.20384      7.25205      2.30920         0.012557     -0.022897      0.019590
H      5.69037      8.28032      1.03058         0.038565      0.011851     -0.022714
H      4.79705      0.21582     -0.12677         0.015554     -0.035998      0.025065
H      0.50152      6.65257      1.59606        -0.000033     -0.039170     -0.016748
H      0.16044      7.92317      2.72299        -0.017628     -0.009076      0.026513
H      1.19534      8.21145      1.42580         0.012557      0.022897     -0.019590
H      1.68187      7.18318      2.70442         0.038565     -0.011851      0.022714
H      0.78855      4.93868      0.12677         0.015554      0.035998     -0.025065
H      7.51548      3.65643      1.59606         0.000033      0.039170     -0.016748
H      7.85656      2.38583      2.72299         0.017628      0.009076      0.026513
H      6.82166      2.09755      1.42580        -0.012557     -0.022897     -0.019590
H      6.33513      3.12582      2.70442        -0.038565      0.011851      0.022714
H      7.22845      5.37032      0.12677        -0.015554     -0.035998     -0.025065
C      0.74748      0.24631      0.24317        -0.010276     -0.000736     -0.005233
C      7.26952     10.06269      0.24317         0.010276      0.000736     -0.005233
C      3.26102      5.40081      3.49183         0.010276     -0.000736      0.005233
C      4.75598      4.90819      3.49183        -0.010276      0.000736      0.005233
N      3.12659      2.32775      1.62964         0.002592      0.017772     -0.047604
N      4.89041      7.98125      1.62964        -0.002592     -0.017772     -0.047604
N      0.88191      7.48225      2.10536        -0.002592      0.017772      0.047604
N      7.13509      2.82675      2.10536         0.002592     -0.017772      0.047604
O      1.63797      9.69575      0.51611         0.030282     -0.038870      0.008687
O      0.96012      1.47164     -0.01363        -0.008063     -0.040565      0.017977
O      6.37903      0.61325      0.51611        -0.030282      0.038870      0.008687
O      7.05688      8.83736     -0.01363         0.008063      0.040565      0.017977
O      2.37053      4.54125      3.21889        -0.030282     -0.038870     -0.008687
O      3.04838      6.62614      0.01363         0.008063     -0.040565     -0.017977
O      5.64647      5.76775      3.21889         0.030282      0.038870     -0.008687
O      4.96862      3.68286      0.01363        -0.008063      0.040565     -0.017977
O      4.00850      0.00000      3.03529        -0.000000      0.000000     -0.040317
O      0.00000      5.15450      0.69971        -0.000000      0.000000      0.040317
