16
# total energy = -102.86832400 eVC      2.49359      1.06002      1.89297        -0.340198     -0.541131      0.959895
C      2.84240      5.59002      1.15615         0.340198     -0.541131     -0.959895
C      1.06374      7.99998      4.80644         0.340198      0.541131     -0.959895
C      0.71493      3.46998      5.54326        -0.340198      0.541131      0.959895
N      0.05753      0.62895      0.07288        -1.490732     -1.539746     -0.066128
N     -0.33125      1.78725      0.63783         0.299909     -0.649954      1.380120
N      1.72113      5.15895      3.27682         1.490732     -1.539746      0.066128
N      2.10991      6.31725      2.71187        -0.299909     -0.649954     -1.380120
N     -0.05753      8.43105     -0.07288         1.490732      1.539746      0.066128
N      0.33125      7.27275      6.36217        -0.299909      0.649954     -1.380120
N      1.83619      3.90105      3.42259        -1.490732      1.539746     -0.066128
N      1.44741      2.74275      3.98753         0.299909      0.649954      1.380120
O      2.78749      1.95385      1.50933         0.168331      1.753734     -1.188247
O      2.54849      6.48385      1.53978        -0.168331      1.753734      1.188247
O      0.76983      7.10615      5.19007        -0.168331     -1.753734      1.188247
O      1.00883      2.57615      5.15963         0.168331     -1.753734     -1.188247
