30
# total energy = -133.83127206 eVH      0.75484      2.49573      4.79594         0.235098      0.141159     -0.171492
H      0.72216      2.46874      1.98635         0.038375      0.515234      0.133272
H      0.20027     -0.11255      0.51493        -0.719598     -0.063741      0.734521
H      2.73816      9.15713     -0.48022        -0.235098      0.141159      0.171492
H      2.77084      9.13014      2.32937        -0.038375      0.515234     -0.133272
H     -0.20027      6.54885     -0.51493         0.719598     -0.063741     -0.734521
H      2.73816     10.82707     -0.48022        -0.235098     -0.141159      0.171492
H      2.77084     10.85406      2.32937        -0.038375     -0.515234     -0.133272
H     -0.20027      0.11255     -0.51493         0.719598      0.063741     -0.734521
H      0.75484      4.16567      4.79594         0.235098     -0.141159     -0.171492
H      0.72216      4.19266      1.98635         0.038375     -0.515234      0.133272
H      0.20027      6.77395      0.51493        -0.719598      0.063741      0.734521
H      2.82614      3.33070      0.55233         0.282771     -0.000000     -0.020951
H      0.66686      9.99210      3.76339        -0.282771      0.000000      0.020951
C      2.05751      0.32980      2.60259         2.794639     -0.084853      3.215242
C      1.43550      6.99120      1.71313        -2.794639     -0.084853     -3.215242
C      1.43550     12.99300      1.71313        -2.794639      0.084853     -3.215242
C      2.05751      6.33160      2.60259         2.794639      0.084853      3.215242
N      1.12742      3.33070      0.17652        -0.816946      0.000000      0.673296
N      0.40793      3.33070      1.48334         0.024741      0.000000     -0.379184
N      2.36558      9.99210      4.13920         0.816946      0.000000     -0.673296
N      3.08508      9.99210      2.83238        -0.024741      0.000000      0.379184
O      2.09577      1.63715      3.00085         0.291368     -0.632288      0.151561
O      2.96898     12.63435      3.30870        -0.654103      2.265249     -0.171655
O      1.39723      8.29855      1.31487        -0.291368     -0.632288     -0.151561
O      0.52402      5.97295      1.00703         0.654103      2.265249      0.171655
O      1.39723     11.68565      1.31487        -0.291368      0.632288     -0.151561
O      0.52402      0.68845      1.00703         0.654103     -2.265249      0.171655
O      2.09577      5.02425      3.00085         0.291368      0.632288      0.151561
O      2.96898      7.34985      3.30870        -0.654103     -2.265249     -0.171655
