16
# total energy = -88.21224472 eVC      2.71991      0.58167      1.48820        -0.685698      0.354732      1.460062
C      2.61607      5.11167      1.56091         0.685698      0.354732     -1.460062
C      0.83741      8.47833      5.21120         0.685698     -0.354732     -1.460062
C      0.94125      3.94833      5.13850        -0.685698     -0.354732      1.460062
N     -0.02871      0.65693      0.16215         0.149929     -4.808574     -1.030648
N     -0.02150      1.87779      0.21332        -0.145151      5.143023      0.609422
N      1.80737      5.18693      3.18755        -0.149929     -4.808574      1.030648
N      1.80016      6.40779      3.13639         0.145151      5.143023     -0.609422
N      0.02871      8.40307     -0.16215        -0.149929      4.808574      1.030648
N      0.02150      7.18221      6.78668         0.145151     -5.143023     -0.609422
N      1.74995      3.87307      3.51186         0.149929      4.808574     -1.030648
N      1.75717      2.65221      3.56302        -0.145151     -5.143023      0.609422
O      2.54738      1.61108      1.81705         0.640060      0.684805     -1.260681
O      2.78860      6.14108      1.23206        -0.640060      0.684805      1.260681
O      1.00994      7.44892      4.88236        -0.640060     -0.684805      1.260681
O      0.76872      2.91892      5.46734         0.640060     -0.684805     -1.260681
