48
# total energy = -195.37428086 eVC      5.08549      3.22427      7.97807       -11.567361     -0.183556     -4.912596
C      4.54441      2.07104      5.89847        -0.383082     -1.056168     -1.796819
C      6.31386      1.45036      5.58073         1.659012     -0.686050     -0.530684
C      7.31618      1.88169      6.60814        -5.995400      1.883406     -0.154018
C      5.05432      0.70713      3.81175         0.789357     -1.813012     -2.793275
C      1.47425      6.92627      1.27487        11.567361     -0.183556      4.912596
C      2.01533      5.77304      3.35446         0.383082     -1.056168      1.796819
C      0.24589      5.15236      3.67220        -1.659012     -0.686050      0.530684
C     12.36305      5.58369      8.73465         5.995400      1.883406      0.154018
C      1.50542      4.40913      5.44118        -0.789357     -1.813012      2.793275
C      8.03399      4.17973      4.31980        11.567361      0.183556      4.912596
C      8.57508      5.33296      6.39939         0.383082      1.056168      1.796819
C      6.80563      5.95364      6.71713        -1.659012      0.686050      0.530684
C      5.80330      5.52231      5.68972         5.995400     -1.883406      0.154018
C      8.06517      6.69687      8.48611        -0.789357      1.813012      2.793275
C     11.64523      0.47773     11.02300       -11.567361      0.183556     -4.912596
C     11.10415      1.63096      8.94341        -0.383082      1.056168     -1.796819
C     12.87360      2.25164      8.62566         1.659012      0.686050     -0.530684
C      0.75644      1.82031      3.56321        -5.995400     -1.883406     -0.154018
C     11.61406      2.99487      6.85668         0.789357      1.813012     -2.793275
N      6.02737      2.94176      7.94322         4.169334      0.814517      2.716188
N      4.52386      2.63818      6.78652        -0.351354      1.760940      2.775739
N      5.73297      1.10417      4.74237         4.976036      0.206427      2.469784
N      4.53975      1.38606      4.76311        -5.614052      1.002826     -0.380777
N      0.53237      6.64376      1.30971        -4.169334      0.814517     -2.716188
N      2.03589      6.34018      2.46641         0.351354      1.760940     -2.775739
N      0.82677      4.80617      4.51057        -4.976036      0.206427     -2.469784
N      2.02000      5.08806      4.48982         5.614052      1.002826      0.380777
N      7.09211      4.46224      4.35464        -4.169334     -0.814517     -2.716188
N      8.59563      4.76582      5.51134         0.351354     -1.760940     -2.775739
N      7.38651      6.29983      7.55550        -4.976036     -0.206427     -2.469784
N      8.57974      6.01794      7.53475         5.614052     -1.002826      0.380777
N     12.58712      0.76024     10.98816         4.169334     -0.814517      2.716188
N     11.08360      1.06382      9.83145        -0.351354     -1.760940      2.775739
N     12.29272      2.59783      7.78730         4.976036     -0.206427      2.469784
N     11.09949      2.31594      7.80804        -5.614052     -1.002826     -0.380777
O      5.15125      3.73785      2.58379         6.173732      0.527051      3.135995
O      8.20646      1.63197      6.66788         6.472223     -1.612248      0.386298
O      4.58917      0.20380      2.83195        -1.335580     -0.605245     -1.361238
O      1.40849      0.03585      6.66914        -6.173732      0.527051     -3.135995
O     11.47277      5.33397      8.67491        -6.472223     -1.612248     -0.386298
O      1.97057      3.90580      6.42099         1.335580     -0.605245      1.361238
O      7.96824      3.66615      9.71407        -6.173732     -0.527051     -3.135995
O      4.91302      5.77203      5.62998        -6.472223      1.612248     -0.386298
O      8.53031      7.20020      9.46592         1.335580      0.605245      1.361238
O     11.71099      7.36815      5.62872         6.173732     -0.527051      3.135995
O      1.64672      2.07003      3.62295         6.472223      1.612248      0.386298
O     11.14892      3.49820      5.87688        -1.335580      0.605245     -1.361238
