16
# total energy = -84.87343505 eVC      2.81708      0.52835      1.34293        -0.908476      0.728695      1.224190
C      2.51890      5.05835      1.70618         0.908476      0.728695     -1.224190
C      0.74024      8.53165      5.35647         0.908476     -0.728695     -1.224190
C      1.03842      4.00165      4.99323        -0.908476     -0.728695      1.224190
N     -0.29433      0.66702      0.15891         3.229145     -1.266361     -0.071033
N      0.06678      1.94216      0.26571        -1.020421     -0.572155     -0.585136
N      2.07299      5.19702      3.19079        -3.229145     -1.266361      0.071033
N      1.71188      6.47216      3.08399         1.020421     -0.572155      0.585136
N      0.29433      8.39298     -0.15891        -3.229145      1.266361      0.071033
N     -0.06678      7.11784      6.73429         1.020421      0.572155      0.585136
N      1.48434      3.86298      3.50861         3.229145      1.266361     -0.071033
N      1.84544      2.58784      3.61541        -1.020421      0.572155     -0.585136
O      2.48362      1.54185      1.91196         0.657806      0.470305     -0.892822
O      2.85237      6.07185      1.13715        -0.657806      0.470305      0.892822
O      1.07370      7.51815      4.78744        -0.657806     -0.470305      0.892822
O      0.70496      2.98815      5.56226         0.657806     -0.470305     -0.892822
