16
# total energy = -45.44013250 eVH      1.48449      4.31549      1.41810        -1.999832     -1.999832      0.112151
H      0.79658      3.62758     -0.88404         0.315253      0.315253      0.028066
H      4.17751      1.34651      1.41810         1.999832      1.999832      0.112151
H      4.86542      2.03442     -0.88404        -0.315253     -0.315253      0.028066
H      4.31549      4.17751      3.29790        -1.999832      1.999832     -0.112151
H      3.62758      4.86542      0.88404         0.315253     -0.315253     -0.028066
H      1.34651      1.48449      3.29790         1.999832     -1.999832     -0.112151
H      2.03442      0.79658      0.88404        -0.315253      0.315253     -0.028066
C      0.00000      2.83100      1.60814         0.000000     -0.000000    -19.933527
C      2.83100      0.00000      3.10786         0.000000     -0.000000     19.933527
N      0.72574      3.55674      1.76356        30.612918     30.612918     -7.106572
N      4.93626      2.10526      1.76356       -30.612918    -30.612918     -7.106572
N      3.55674      4.93626      2.95244        30.612918    -30.612918      7.106572
N      2.10526      0.72574      2.95244       -30.612918     30.612918      7.106572
O      0.00000      2.83100      2.82927         0.000000     -0.000000     33.216809
O      2.83100      0.00000      1.88673         0.000000     -0.000000    -33.216809
