36
# total energy = -220.85179100 eVH      0.73123      2.40173      2.49911         0.195293     -0.015924     -0.128975
H      0.43519      3.58874      1.32282         0.147884     -0.029179      0.168140
H      4.59651      7.65473      1.12427         0.195293     -0.015924     -0.128975
H      4.30046      8.84174     -0.05202         0.147884     -0.029179      0.168140
H      6.99931      2.40173     -1.10280        -0.195293     -0.015924      0.128975
H      7.29535      3.58874      0.07350        -0.147884     -0.029179     -0.168140
H      3.13404      7.65473      0.27204        -0.195293     -0.015924      0.128975
H      3.43008      8.84174      1.44834        -0.147884     -0.029179     -0.168140
H      6.99931      8.10427     -1.10280        -0.195293      0.015924      0.128975
H      7.29535      6.91726      0.07350        -0.147884      0.029179     -0.168140
H      3.13404      2.85127      0.27204        -0.195293      0.015924      0.128975
H      3.43008      1.66426      1.44834        -0.147884      0.029179     -0.168140
H      0.73123      8.10427      2.49911         0.195293      0.015924     -0.128975
H      0.43519      6.91726      1.32282         0.147884      0.029179      0.168140
H      4.59651      2.85127      1.12427         0.195293      0.015924     -0.128975
H      4.30046      1.66426     -0.05202         0.147884      0.029179      0.168140
C      2.15740      5.25300     -0.19477         0.083904      0.000000     -0.040000
C      3.35761      5.25300     -1.03624         0.131643      0.000000     -0.085765
C      6.02268      0.00000     -1.56961         0.083904      0.000000     -0.040000
C      7.22288      0.00000     -2.41108         0.131643      0.000000     -0.085765
C      5.57314      5.25300      1.59109        -0.083904      0.000000      0.040000
C      4.37293      5.25300      2.43256        -0.131643      0.000000      0.085765
C      1.70787      0.00000      2.96593        -0.083904      0.000000      0.040000
C      0.50766      0.00000      3.80740        -0.131643      0.000000      0.085765
N     -0.00000      3.00339      2.07300         0.000000      0.069922      0.000000
N      3.86527      8.25639      0.69816         0.000000      0.069922      0.000000
N     -0.00000      7.50261      2.07300         0.000000     -0.069922      0.000000
N      3.86527      2.24961      0.69816         0.000000     -0.069922      0.000000
O      1.69977      6.39093      0.13089         0.001503      0.029270      0.014344
O      5.56504      1.13793     -1.24395         0.001503      0.029270      0.014344
O      6.03077      6.39093      1.26542        -0.001503      0.029270     -0.014344
O      2.16550      1.13793      2.64026        -0.001503      0.029270     -0.014344
O      6.03077      4.11507      1.26542        -0.001503     -0.029270     -0.014344
O      2.16550      9.36807      2.64026        -0.001503     -0.029270     -0.014344
O      1.69977      4.11507      0.13089         0.001503     -0.029270      0.014344
O      5.56504      9.36807     -1.24395         0.001503     -0.029270      0.014344
