30
# total energy = 441.49594695 eVH      0.55745      1.99970      4.53615        -0.624633     -0.540158     -0.093903
H      0.80897      2.23282      2.09422        -2.008711     -2.060908      1.949328
H     -0.24826     -0.62509     -0.27124         0.335257      0.231318      0.729440
H      2.93556      8.66110     -0.22042         0.624633     -0.540158      0.093903
H      2.68403      8.89422      2.22151         2.008711     -2.060908     -1.949328
H      0.24826      6.03631      0.27124        -0.335257      0.231318     -0.729440
H      2.93556     11.32310     -0.22042         0.624633      0.540158      0.093903
H      2.68403     11.08998      2.22151         2.008711      2.060908     -1.949328
H      0.24826      0.62509      0.27124        -0.335257     -0.231318     -0.729440
H      0.55745      4.66170      4.53615        -0.624633      0.540158     -0.093903
H      0.80897      4.42858      2.09422        -2.008711      2.060908      1.949328
H     -0.24826      7.28649     -0.27124         0.335257     -0.231318      0.729440
H      2.07024      3.33070      0.49360        36.679370      0.000000    -24.763292
H      1.42276      9.99210      3.82212       -36.679370      0.000000     24.763292
C      1.87109      0.28267      2.37892        60.857731    157.083086    113.179865
C      1.62191      6.94407      1.93680       -60.857731    157.083086   -113.179865
C      1.62191     13.04013      1.93680       -60.857731   -157.083086   -113.179865
C      1.87109      6.37873      2.37892        60.857731   -157.083086    113.179865
N      1.46299      3.33070      0.85486       717.737068     -0.000000   -545.058086
N      1.05119      3.33070      1.16628      -752.447292      0.000000    566.128139
N      2.03001      9.99210      3.46087      -717.737068      0.000000    545.058086
N      2.44181      9.99210      3.14944       752.447292      0.000000   -566.128139
O      2.07952      1.69979      3.00204         4.896253     -2.544908      3.164014
O      2.52440     12.02256      2.62172         7.863321     -4.713827      6.472869
O      1.41348      8.36119      1.31369        -4.896253     -2.544908     -3.164014
O      0.96860      5.36116      1.69400        -7.863321     -4.713827     -6.472869
O      1.41348     11.62301      1.31369        -4.896253      2.544908     -3.164014
O      0.96860      1.30024      1.69400        -7.863321      4.713827     -6.472869
O      2.07952      4.96161      3.00204         4.896253      2.544908      3.164014
O      2.52440      7.96164      2.62172         7.863321      4.713827      6.472869
