38
# total energy = -218.70691782 eVH      3.50739      1.49848      2.13793         0.016732     -0.063871      0.042165
H      3.84837      2.77091      1.01399         0.023942     -0.008681     -0.036543
H      2.81250      3.05612      2.31037        -0.012941      0.029589      0.031256
H      2.32755      2.02864      1.03139        -0.027935     -0.003634     -0.020819
H      3.21972     10.09132     -0.12675        -0.008337      0.044928      0.030198
H      4.50961      8.81052      2.13793        -0.016732      0.063871      0.042165
H      4.16863      7.53809      1.01399        -0.023942      0.008681     -0.036543
H      5.20450      7.25288      2.31037         0.012941     -0.029589      0.031256
H      5.68945      8.28036      1.03139         0.027935      0.003634     -0.020819
H      4.79728      0.21768     -0.12675         0.008337     -0.044928      0.030198
H      0.50111      6.65298      1.59707        -0.016732     -0.063871     -0.042165
H      0.16013      7.92541      2.72101        -0.023942     -0.008681      0.036543
H      1.19600      8.21062      1.42463         0.012941      0.029589     -0.031256
H      1.68095      7.18314      2.70361         0.027935     -0.003634      0.020819
H      0.78878      4.93682      0.12675         0.008337      0.044928     -0.030198
H      7.51589      3.65602      1.59707         0.016732      0.063871     -0.042165
H      7.85687      2.38359      2.72101         0.023942      0.008681      0.036543
H      6.82100      2.09838      1.42463        -0.012941     -0.029589     -0.031256
H      6.33605      3.12586      2.70361        -0.027935      0.003634      0.020819
H      7.22822      5.37218      0.12675        -0.008337     -0.044928     -0.030198
C      0.74760      0.24605      0.24304        -0.030327      0.039610     -0.009528
C      7.26940     10.06295      0.24304         0.030327     -0.039610     -0.009528
C      3.26090      5.40055      3.49196         0.030327      0.039610      0.009528
C      4.75610      4.90845      3.49196        -0.030327     -0.039610      0.009528
N      3.12751      2.32829      1.63075        -0.036549      0.024058     -0.079364
N      4.88949      7.98071      1.63075         0.036549     -0.024058     -0.079364
N      0.88099      7.48279      2.10425         0.036549      0.024058      0.079364
N      7.13601      2.82621      2.10425        -0.036549     -0.024058      0.079364
O      1.63877      9.69687      0.51621         0.034576     -0.054846      0.011382
O      0.95867      1.47191     -0.01425         0.003797     -0.051720      0.022622
O      6.37823      0.61213      0.51621        -0.034576      0.054846      0.011382
O      7.05833      8.83709     -0.01425        -0.003797      0.051720      0.022622
O      2.36973      4.54237      3.21879        -0.034576     -0.054846     -0.011382
O      3.04983      6.62641      0.01425        -0.003797     -0.051720     -0.022622
O      5.64727      5.76663      3.21879         0.034576      0.054846     -0.011382
O      4.96717      3.68259      0.01425         0.003797      0.051720     -0.022622
O      4.00850      0.00000      3.03629         0.000000      0.000000     -0.053973
O      0.00000      5.15450      0.69871         0.000000      0.000000      0.053973
