16
# total energy = -110.06473568 eVC      2.29140      1.87319      2.51518        -0.204126      0.368401      0.360495
C      3.04458      6.40319      0.53393         0.204126      0.368401     -0.360495
C      1.26592      7.18681      4.18423         0.204126     -0.368401     -0.360495
C      0.51274      2.65681      6.16547        -0.204126     -0.368401      0.360495
N     -0.24146      0.40687      0.42923         0.486685      0.054016     -0.147079
N     -0.52484      1.40376      1.17386        -0.027497     -0.797963     -0.641599
N      2.02012      4.93687      2.92047        -0.486685      0.054016      0.147079
N      2.30351      5.93376      2.17584         0.027497     -0.797963      0.641599
N      0.24146      8.65313     -0.42923        -0.486685     -0.054016      0.147079
N      0.52484      7.65624      5.82614         0.027497      0.797963      0.641599
N      1.53720      4.12313      3.77894         0.486685     -0.054016     -0.147079
N      1.25382      3.12624      4.52356        -0.027497      0.797963     -0.641599
O      2.67958      2.28073      1.65357        -0.145008      0.657644      0.689089
O      2.65641      6.81073      1.39554         0.145008      0.657644     -0.689089
O      0.87775      6.77927      5.04583         0.145008     -0.657644     -0.689089
O      0.90091      2.24927      5.30387        -0.145008     -0.657644      0.689089
