40
# total energy = -213.52946173 eVH      6.24860      1.24655      6.05896        -1.918274     -0.085080      0.430189
H      5.02559      3.12461      4.78797        -4.023079     -2.996657      1.126852
H      5.76362      4.08011      3.99578         0.867879      2.030279     -1.780291
H      5.90419      4.35468      5.68463        -0.359178      3.309060      3.853306
H      6.19237      1.52661      3.69109        -5.865518     -4.419992      0.034899
H      4.29460      4.24485      1.70626         1.918274      0.085080      0.430189
H      5.51761      2.36679      0.43527         4.023079      2.996657      1.126852
H      4.77958      1.41129      8.34848        -0.867879     -2.030279     -1.780291
H      4.63901      1.13672      1.33193         0.359178     -3.309060      3.853306
H      4.35083      3.96479      8.04379         5.865518      4.419992      0.034899
H      2.73420      4.24485      1.70626        -1.918274      0.085080      0.430189
H      1.51119      2.36679      0.43527        -4.023079      2.996657      1.126852
H      2.24922      1.41129      8.34848         0.867879     -2.030279     -1.780291
H      2.38979      1.13672      1.33193        -0.359178     -3.309060      3.853306
H      2.67797      3.96479      8.04379        -5.865518      4.419992      0.034899
H      0.78020      1.24655      6.05896         1.918274     -0.085080      0.430189
H      2.00321      3.12461      4.78797         4.023079     -2.996657      1.126852
H      1.26518      4.08011      3.99578        -0.867879      2.030279     -1.780291
H      1.12461      4.35468      5.68463         0.359178      3.309060      3.853306
H      0.83643      1.52661      3.69109         5.865518     -4.419992      0.034899
H      0.00000      2.59743      7.06008        -0.000000     -0.369278      0.110477
H      0.00000      2.50408      3.09912        -0.000000     12.393822    -14.523580
H      3.51440      2.89397      2.70738        -0.000000      0.369278      0.110477
H      3.51440      2.98732      7.45182        -0.000000    -12.393822    -14.523580
C      5.81422      3.69681      4.96556         3.199354     -1.954865     -3.244266
C      4.72898      1.79459      0.61286        -3.199354      1.954865     -3.244266
C      2.29982      1.79459      0.61286         3.199354      1.954865     -3.244266
C      1.21458      3.69681      4.96556        -3.199354     -1.954865     -3.244266
C      0.00000      4.80937      0.59284        -0.000000      0.194453     11.405176
C      0.00000      1.95713      6.17300        -0.000000      0.311847     -0.463849
C      0.00000      1.97031      3.74158        -0.000000     -3.780416     14.050049
C      3.51440      0.68203      4.94554        -0.000000     -0.194453     11.405176
C      3.51440      3.53427      1.82030        -0.000000     -0.311847     -0.463849
C      3.51440      3.52109      8.09428        -0.000000      3.780416     14.050049
N      0.00000      4.83243      1.81246        -0.000000     -0.111364     -0.863545
N      0.00000      2.82807      4.97252        -0.000000     -0.249639      0.032933
N      3.51440      0.65897      6.16516        -0.000000      0.111364     -0.863545
N      3.51440      2.66333      0.61982        -0.000000      0.249639      0.032933
O      0.00000      4.80662      8.17089        -0.000000     -0.187353    -10.589039
O      3.51440      0.68478      3.81819        -0.000000      0.187353    -10.589039
