36
# total energy = -220.88799411 eVH      0.74733      2.40187      2.48693        -0.031002      0.007047     -0.031361
H      0.45014      3.58946      1.33425        -0.025902     -0.063832      0.062844
H      4.61260      7.65487      1.11209        -0.031002      0.007047     -0.031361
H      4.31541      8.84246     -0.04059        -0.025902     -0.063832      0.062844
H      6.98321      2.40187     -1.09061         0.031002      0.007047      0.031361
H      7.28040      3.58946      0.06207         0.025902     -0.063832     -0.062844
H      3.11794      7.65487      0.28423         0.031002      0.007047      0.031361
H      3.41513      8.84246      1.43691         0.025902     -0.063832     -0.062844
H      6.98321      8.10413     -1.09061         0.031002     -0.007047      0.031361
H      7.28040      6.91654      0.06207         0.025902      0.063832     -0.062844
H      3.11794      2.85113      0.28423         0.031002     -0.007047      0.031361
H      3.41513      1.66354      1.43691         0.025902      0.063832     -0.062844
H      0.74733      8.10413      2.48693        -0.031002     -0.007047     -0.031361
H      0.45014      6.91654      1.33425        -0.025902      0.063832      0.062844
H      4.61260      2.85113      1.11209        -0.031002     -0.007047     -0.031361
H      4.31541      1.66354     -0.04059        -0.025902      0.063832      0.062844
C      2.16210      5.25300     -0.19631        -0.022460     -0.000000      0.036838
C      3.35870      5.25300     -1.03671         0.022710     -0.000000     -0.016572
C      6.02737      0.00000     -1.57115        -0.022460     -0.000000      0.036838
C      7.22397      0.00000     -2.41155         0.022710     -0.000000     -0.016572
C      5.56844      5.25300      1.59262         0.022460     -0.000000     -0.036838
C      4.37184      5.25300      2.43302        -0.022710     -0.000000      0.016572
C      1.70317      0.00000      2.96746         0.022460     -0.000000     -0.036838
C      0.50657      0.00000      3.80786        -0.022710     -0.000000      0.016572
N     -0.00000      2.99948      2.07300        -0.000000      0.080526      0.000000
N      3.86527      8.25248      0.69816        -0.000000      0.080526      0.000000
N     -0.00000      7.50652      2.07300         0.000000     -0.080526      0.000000
N      3.86527      2.25352      0.69816         0.000000     -0.080526      0.000000
O      1.70221      6.39054      0.13098         0.035142      0.018725      0.021715
O      5.56748      1.13754     -1.24386         0.035142      0.018725      0.021715
O      6.02833      6.39054      1.26533        -0.035142      0.018725     -0.021715
O      2.16306      1.13754      2.64017        -0.035142      0.018725     -0.021715
O      6.02833      4.11546      1.26533        -0.035142     -0.018725     -0.021715
O      2.16306      9.36846      2.64017        -0.035142     -0.018725     -0.021715
O      1.70221      4.11546      0.13098         0.035142     -0.018725      0.021715
O      5.56748      9.36846     -1.24386         0.035142     -0.018725      0.021715
