38
# total energy = -218.20902102 eVH      3.54872      1.46726      2.07355        -0.432156      0.917105      0.003893
H      3.87446      2.86996      1.11080        -0.405014     -0.229393     -0.328925
H      2.75028      3.04160      2.38616         0.502791     -0.603855     -0.585787
H      2.31742      2.03696      1.02394         0.739014      0.438019      0.137167
H      3.22980     10.15405     -0.10162        -0.786171     -0.292266      0.425116
H      4.46828      8.84174      2.07355         0.432156     -0.917105      0.003893
H      4.14254      7.43904      1.11080         0.405014      0.229393     -0.328925
H      5.26672      7.26740      2.38616        -0.502791      0.603855     -0.585787
H      5.69958      8.27204      1.02394        -0.739014     -0.438019      0.137167
H      4.78720      0.15495     -0.10162         0.786171      0.292266      0.425116
H      0.45978      6.62176      1.66145         0.432156      0.917105     -0.003893
H      0.13404      8.02446      2.62420         0.405014     -0.229393      0.328925
H      1.25822      8.19610      1.34884        -0.502791     -0.603855      0.585787
H      1.69108      7.19146      2.71106        -0.739014      0.438019     -0.137167
H      0.77870      4.99955      0.10162         0.786171     -0.292266     -0.425116
H      7.55722      3.68724      1.66145        -0.432156     -0.917105     -0.003893
H      7.88296      2.28454      2.62420        -0.405014      0.229393      0.328925
H      6.75878      2.11290      1.34884         0.502791      0.603855      0.585787
H      6.32592      3.11754      2.71106         0.739014     -0.438019     -0.137167
H      7.23830      5.30945      0.10162        -0.786171      0.292266     -0.425116
C      0.74111      0.24910      0.25506         0.857860     -1.259269      0.335101
C      7.27589     10.05990      0.25506        -0.857860      1.259269      0.335101
C      3.26739      5.40360      3.47994        -0.857860     -1.259269     -0.335101
C      4.74961      4.90540      3.47994         0.857860      1.259269     -0.335101
N      3.12814      2.35681      1.64042        -0.395274     -0.619913      0.699509
N      4.88886      7.95219      1.64042         0.395274      0.619913      0.699509
N      0.88036      7.51131      2.09458         0.395274     -0.619913     -0.699509
N      7.13664      2.79769      2.09458        -0.395274      0.619913     -0.699509
O      1.64499      9.68050      0.53641        -0.705269      0.698491     -0.201803
O      0.96778      1.45846      0.00266         0.029911      0.487567     -0.138261
O      6.37201      0.62850      0.53641         0.705269     -0.698491     -0.201803
O      7.04922      8.85054      0.00266        -0.029911     -0.487567     -0.138261
O      2.36351      4.52600      3.19859         0.705269      0.698491      0.201803
O      3.04072      6.61296     -0.00266        -0.029911      0.487567      0.138261
O      5.65349      5.78300      3.19859        -0.705269     -0.698491      0.201803
O      4.97628      3.69604     -0.00266         0.029911     -0.487567      0.138261
O      4.00850      0.00000      3.06580        -0.000000      0.000000     -1.062201
O     -0.00000      5.15450      0.66920        -0.000000      0.000000      1.062201
