152
# total energy = -1005.98020386 eVH     10.35389      5.87395      7.64558         0.256649      0.037808      0.639088
H     10.62451     15.10445      7.64558        -0.109544     -0.142697      0.528035
H     10.62451      5.87395     13.33282         0.487048      0.120474     -0.584984
H     10.35389     15.10445     13.33282         0.070754     -0.184732     -0.545123
H      7.64558     10.35389      5.87395         0.370261      0.046345      0.172732
H      7.64558     10.62451     15.10445         0.689974      0.470842     -0.042338
H     13.33282     10.62451      5.87395        -0.532243      0.418223      0.075586
H     13.33282     10.35389     15.10445        -0.799033     -0.094767      0.003688
H      5.87395      7.64558     10.35389         0.250288      0.784391     -0.294123
H     15.10445      7.64558     10.62451        -0.095034      0.485256      0.285329
H      5.87395     13.33282     10.62451         0.156958     -0.698312     -0.161563
H     15.10445     13.33282     10.35389        -0.004347     -1.044882     -0.330245
H      5.87395     10.35389      7.64558         0.252918      0.155895      0.613809
H     15.10445     10.62451      7.64558        -0.111634      0.408093      0.767980
H      5.87395     10.62451     13.33282         0.140886      0.335743     -0.696143
H     15.10445     10.35389     13.33282        -0.041028     -0.075578     -0.701662
H     10.35389      7.64558      5.87395         0.368134      1.046515     -0.008938
H     10.62451      7.64558     15.10445         0.536456      0.536287     -0.118140
H     10.62451     13.33282      5.87395        -0.397190     -0.836538      0.188702
H     10.35389     13.33282     15.10445        -0.043180     -0.433115     -0.217077
H      7.64558      5.87395     10.35389         0.854272      0.088178     -0.289886
H      7.64558     15.10445     10.62451         0.828473     -0.200866      0.001095
H     13.33282      5.87395     10.62451        -0.795703      0.189743      0.591867
H     13.33282     15.10445     10.35389        -0.444664     -0.107089     -0.136181
H     12.45634     12.45634     19.01126         0.235346      0.271051     -0.239416
H     19.01126     19.01126     19.01126        -0.262285     -0.240614     -0.261298
H     19.01126     12.45634     12.45634        -0.266913      0.268499      0.219818
H     12.45634     19.01126     12.45634         0.232420     -0.256659      0.276737
C     10.35284      5.61067      6.59456        -0.431479     -0.689037      0.150717
C     10.62556     15.36773      6.59456         0.065717      0.363429     -0.307934
C     10.62556      5.61067     14.38384        -0.329714     -0.375093     -0.295600
C     10.35284     15.36773     14.38384        -0.006782      0.342020      0.534402
C      6.59456     10.35284      5.61067        -0.285031     -0.006084     -0.330477
C      6.59456     10.62556     15.36773        -0.251742     -0.216646      0.797836
C     14.38384     10.62556      5.61067        -0.242963     -0.396346     -0.524811
C     14.38384     10.35284     15.36773         0.971300     -0.063691      0.255534
C      5.61067      6.59456     10.35284        -0.536324     -0.006960      0.051272
C     15.36773      6.59456     10.62556         0.534399      0.016285     -0.249676
C      5.61067     14.38384     10.62556        -0.323792      0.977979      0.080318
C     15.36773     14.38384     10.35284         0.302945      1.047117      0.049567
C      5.61067     10.35284      6.59456        -0.191063     -0.212733     -0.608543
C     15.36773     10.62556      6.59456         0.445716     -0.276718      0.114938
C      5.61067     10.62556     14.38384        -0.700779     -0.343865     -0.081287
C     15.36773     10.35284     14.38384         0.382641     -0.064113      1.025714
C     10.35284      6.59456      5.61067        -0.217836     -0.276845     -0.656156
C     10.62556      6.59456     15.36773        -0.266753      0.131840      0.452403
C     10.62556     14.38384      5.61067         0.195513      1.062140     -0.346805
C     10.35284     14.38384     15.36773         0.016525      0.544884      0.443340
C      6.59456      5.61067     10.35284        -0.146539     -0.735656      0.252160
C      6.59456     15.36773     10.62556        -1.005354      0.286548      0.080081
C     14.38384      5.61067     10.62556         0.495958     -0.554373     -0.366916
C     14.38384     15.36773     10.35284         0.218007      0.461698     -0.099983
C     10.40319      3.19606      7.29314         0.013211      0.678868     -0.478540
C     10.35913      4.25547      6.23373         0.087397     -0.721554     -0.021685
C      0.08601      7.29314      7.29314        -0.044456     -0.407411     -0.313198
C      0.13007      6.23373      6.23373        -0.023052      0.087242      0.573615
C      0.08601      3.19606      3.19606        -0.012933      1.270131      0.284054
C      0.13007      4.25547      4.25547         0.050326     -0.778798     -0.155994
C     10.40319      7.29314      3.19606         0.011397     -0.325104      0.329813
C     10.35913      6.23373      4.25547         0.025495      0.006027     -0.841496
C      7.29314     10.40319      3.19606        -0.320863      0.022589      0.564463
C      6.23373     10.35913      4.25547         0.200028      0.064779     -0.088645
C      7.29314      0.08601      7.29314        -0.516790     -0.065053     -0.376604
C      6.23373      0.13007      6.23373         0.678484     -0.054110      0.479168
C      3.19606      0.08601      3.19606         0.722041     -0.034410      0.569520
C      4.25547      0.13007      4.25547        -0.581740     -0.086438     -0.544855
C      3.19606     10.40319      7.29314         0.479869     -0.013464     -0.767693
C      4.25547     10.35913      6.23373        -0.399591      0.053678      0.198486
C      3.19606      7.29314     10.40319         0.294805     -1.276517      0.045494
C      4.25547      6.23373     10.35913        -0.774565      0.109163      0.152237
C      7.29314      7.29314      0.08601        -0.407749     -0.374470     -0.027014
C      6.23373      6.23373      0.13007         0.466742      0.214776     -0.017093
C      3.19606      3.19606      0.08601         0.489544      0.375593     -0.040776
C      4.25547      4.25547      0.13007        -0.157668     -0.647940     -0.034931
C      7.29314      3.19606     10.40319        -0.325676      0.437361      0.076937
C      6.23373      4.25547     10.35913         0.284171     -0.683287      0.145494
O     10.43466      3.58206      8.50569        -0.018249      0.105470      0.502060
O     10.54374     17.39634      8.50569         0.036468     -0.175262      0.486435
O     10.54374      3.58206     12.47271         0.054205     -0.088431     -0.184401
O     10.43466     17.39634     12.47271        -0.039044     -0.183241     -0.545592
O      8.50569     10.43466      3.58206         0.306087     -0.004035      0.026368
O      8.50569     10.54374     17.39634         0.627591      0.034780     -0.143892
O     12.47271     10.54374      3.58206        -0.707369      0.085098      0.094812
O     12.47271     10.43466     17.39634        -0.437504      0.024826     -0.109002
O      3.58206      8.50569     10.43466         0.177933      1.041432     -0.040436
O     17.39634      8.50569     10.54374        -0.160486      0.540477      0.076490
O      3.58206     12.47271     10.54374         0.085429     -0.369162      0.049369
O     17.39634     12.47271     10.43466        -0.156818     -0.546524     -0.022596
O      3.58206     10.43466      8.50569         0.078198     -0.066953      0.591042
O     17.39634     10.54374      8.50569        -0.110910      0.066379      0.525473
O      3.58206     10.54374     12.47271         0.042202      0.047923     -0.521028
O     17.39634     10.43466     12.47271        -0.223258     -0.038320     -0.604925
O     10.43466      8.50569      3.58206        -0.040201      0.454922      0.136585
O     10.54374      8.50569     17.39634         0.050583      0.531267     -0.159308
O     10.54374     12.47271      3.58206         0.003307     -1.019497      0.203560
O     10.43466     12.47271     17.39634         0.041543     -0.725058     -0.175006
O      8.50569      3.58206     10.43466         0.509128      0.146247     -0.055296
O      8.50569     17.39634     10.54374         0.487153     -0.196292      0.015046
O     12.47271      3.58206     10.54374        -0.632456      0.230031      0.010854
O     12.47271     17.39634     10.43466        -0.222338      0.067587     -0.055094
O     11.90042     11.90042     19.56718        -0.239398     -0.289949      0.247417
O     19.56718     19.56718     19.56718         0.310883      0.295448      0.301523
O     19.56718     11.90042     11.90042         0.291454     -0.264422     -0.232974
O     11.90042     19.56718     11.90042        -0.241789      0.290966     -0.330068
O      9.45224      1.03696      9.45224        -0.019104      0.088227     -0.072943
O      1.03696      9.45224      9.45224         0.091699     -0.092086     -0.136857
O      1.03696      1.03696      1.03696         0.090479      0.189323      0.050486
O      9.45224      9.45224      1.03696        -0.108815     -0.103660      0.034445
Zr     10.48920      2.52580     10.48920        -0.128009     -0.287183     -0.037366
Zr     10.48920     18.45260     10.48920        -0.075503      0.215323      0.081427
Zr     10.48920     10.48920      2.52580         0.029057     -0.402819     -0.256627
Zr     10.48920     10.48920     18.45260        -0.279449     -0.091573      0.322422
Zr      2.52580     10.48920     10.48920        -0.380459      0.240216      0.290391
Zr     18.45260     10.48920     10.48920         0.236302     -0.004049     -0.224820
Pd     13.60675      8.97172      9.22665         0.000249      0.003410     -0.004548
Pd      5.62941      9.87501     10.14219        -0.000119     -0.003593     -0.000646
Pd      6.77886     11.85701     11.70868        -0.002478     -0.002560     -0.000706
Pd     12.06085     13.00839      7.37186         0.002735     -0.002403     -0.004884
Pd     11.88130      7.73821      7.46356        -0.000572      0.002195     -0.001883
Pd      8.31316      6.85239      6.57823         0.000765     -0.000296     -0.011041
Pd     10.63331     11.17306      5.64628        -0.011143     -0.000785      0.001125
Pd     14.39817      8.55084      6.74565         0.001098     -0.000555     -0.002443
Pd      9.67594     11.72771      8.12390        -0.002722      0.003093      0.003073
Pd      6.75841      6.79677     12.32368        -0.006815     -0.000744      0.003307
Pd      6.54255      8.08164      8.04122         0.012534      0.037167     -0.030352
Pd      6.53349      8.49920     14.35969        -0.003513     -0.002116      0.006557
Pd     11.49749      6.52498      9.94338        -0.002829     -0.002217     -0.001382
Pd      9.50796      9.20104      7.14865        -0.007360      0.001302      0.004593
Pd      8.98044     13.98473      9.32757         0.000108      0.003507      0.005387
Pd      9.46877      7.37176     11.72431        -0.006201     -0.000970     -0.005653
Pd     10.61851      8.98265      9.68539         0.000740     -0.003752     -0.000415
Pd      9.33926     11.53824     10.70931        -0.000283      0.006355      0.003993
Pd      8.89789      7.05453      9.14536        -0.008393      0.004579     -0.008280
Pd      8.55320      6.57813     14.24609        -0.000099     -0.000487     -0.003504
Pd      7.64941      9.33273     11.99034        -0.005273     -0.002791      0.007854
Pd     11.96977     10.37984      7.72717        -0.005977      0.000030     -0.000659
Pd      7.13165     12.01292      9.06280        -0.000981      0.002078      0.000680
Pd      8.12840      9.60855      9.39405         0.002129      0.004517      0.013509
Pd     14.02102      6.49088      8.51833        -0.002590      0.002874      0.001279
Pd     12.61942      8.39511     11.58384        -0.000319      0.002050     -0.002919
Pd      8.77039     11.57631     13.40515        -0.003532      0.000111      0.001620
Pd     13.88958     11.93767      8.96390        -0.002258     -0.005613      0.001621
Pd     12.95525     10.69981     13.06367        -0.005119      0.000373      0.003680
Pd     14.78977     10.44802     11.10247        -0.005229     -0.003811      0.005206
Pd     12.07637     10.89964     10.52859        -0.004897     -0.001603      0.002945
Pd     11.44061     13.35170      9.93683         0.001309     -0.003166     -0.004914
Pd     13.60191     12.92479     11.62801        -0.001669     -0.002091     -0.000140
Pd     11.12314     12.61110     12.53877        -0.002776      0.002895      0.000123
Pd     10.95587     11.05853     14.81411        -0.003876      0.001630      0.001930
Pd     10.51619      9.73971     12.38094        -0.004237     -0.002424     -0.000323
Pd      9.08643      9.14183     14.41784        -0.002062     -0.000772      0.004060
Pd      8.82613     13.85222     12.02242        -0.005921      0.002232      0.005975
