8
# total energy = -53.48822410 eVC      1.14292     13.19898      0.00000        -0.000000     -0.268822     -0.000000
C      1.14292      4.08722     -0.00000         0.000000      0.268822      0.000000
O      1.14292      5.27681      0.00000         0.000000      0.091392      0.000000
O      1.14292     12.00939     -0.00000         0.000000     -0.091392     -0.000000
O     -0.00000     13.96565      0.00000        -0.000000      0.245885      0.000000
O      0.00000      3.32055     -0.00000         0.000000     -0.245885     -0.000000
Ir     -0.00000      8.64310      0.00000         0.000000     -0.000000      0.000000
Ir     -0.00000      0.00000      0.00000         0.000000     -0.000000      0.000000
