152
# total energy = -1005.19105440 eVH     10.35389      5.87395      7.64558         0.184711      0.097335      0.582658
H     10.62451     15.10445      7.64558        -0.119890     -0.146113      0.500221
H     10.62451      5.87395     13.33282         0.548989      0.069838     -0.867786
H     10.35389     15.10445     13.33282         0.016185     -0.153857     -0.395278
H      7.64558     10.35389      5.87395         0.351603      0.039710      0.166774
H      7.64558     10.62451     15.10445         0.951935      0.575860      0.027280
H     13.33282     10.62451      5.87395        -0.467099      0.339959      0.076744
H     13.33282     10.35389     15.10445        -0.850578     -0.087044     -0.002923
H      5.87395      7.64558     10.35389         0.318930      1.303775      0.035911
H     15.10445      7.64558     10.62451        -0.104800      0.508971      0.348149
H      5.87395     13.33282     10.62451         0.169638     -0.576007      0.049592
H     15.10445     13.33282     10.35389        -0.086071     -0.957578     -0.199715
H      5.87395     10.35389      7.64558         0.222204      0.051507      0.445254
H     15.10445     10.62451      7.64558        -0.143283      0.544402      0.763486
H      5.87395     10.62451     13.33282        -0.024597      0.473229     -1.110664
H     15.10445     10.35389     13.33282        -0.088468     -0.039061     -0.622055
H     10.35389      7.64558      5.87395         0.356028      1.169285      0.066826
H     10.62451      7.64558     15.10445         0.627817      0.696646     -0.205673
H     10.62451     13.33282      5.87395        -0.381633     -0.819378      0.296599
H     10.35389     13.33282     15.10445        -0.119631     -0.474550     -0.297943
H      7.64558      5.87395     10.35389         0.780670      0.063711     -0.201540
H      7.64558     15.10445     10.62451         0.809251     -0.174543      0.007513
H     13.33282      5.87395     10.62451        -0.708560      0.158296      0.548638
H     13.33282     15.10445     10.35389        -0.387209     -0.118244     -0.095099
H     12.45634     12.45634     19.01126         0.248087      0.275410     -0.230118
H     19.01126     19.01126     19.01126        -0.279653     -0.254399     -0.232093
H     19.01126     12.45634     12.45634        -0.280159      0.262507      0.216266
H     12.45634     19.01126     12.45634         0.237311     -0.259309      0.274513
C     10.35284      5.61067      6.59456        -0.268308     -0.788143     -0.176363
C     10.62556     15.36773      6.59456         0.049517      0.291684     -0.274589
C     10.62556      5.61067     14.38384        -0.136209     -0.494945      0.396242
C     10.35284     15.36773     14.38384         0.024958      0.181667      0.339488
C      6.59456     10.35284      5.61067        -0.387679      0.009362     -0.222800
C      6.59456     10.62556     15.36773        -0.813578      0.111390      0.652701
C     14.38384     10.62556      5.61067        -0.160085     -0.451088     -0.730995
C     14.38384     10.35284     15.36773         1.062604     -0.084439      0.162944
C      5.61067      6.59456     10.35284        -0.743380     -0.314058     -0.293382
C     15.36773      6.59456     10.62556         0.520281      0.079226     -0.412687
C      5.61067     14.38384     10.62556        -0.184032      0.546731     -0.000735
C     15.36773     14.38384     10.35284         0.272406      0.945292      0.023479
C      5.61067     10.35284      6.59456        -0.306810      0.018822     -0.816068
C     15.36773     10.62556      6.59456         0.515103     -0.247703      0.229740
C      5.61067     10.62556     14.38384        -0.721248      0.009598      0.756960
C     15.36773     10.35284     14.38384         0.436494     -0.040380      0.994478
C     10.35284      6.59456      5.61067        -0.140799     -0.824560     -0.580731
C     10.62556      6.59456     15.36773        -0.005420     -0.498625      0.548782
C     10.62556     14.38384      5.61067         0.191841      1.215585     -0.339082
C     10.35284     14.38384     15.36773        -0.008353      0.883983      0.393465
C      6.59456      5.61067     10.35284         0.250122     -1.079465      0.308601
C      6.59456     15.36773     10.62556        -0.946546      0.220236      0.096825
C     14.38384      5.61067     10.62556         0.281021     -0.625988     -0.350955
C     14.38384     15.36773     10.35284         0.154151      0.365648     -0.071730
C     10.40319      3.19606      7.29314         0.003957      0.902165     -0.421764
C     10.35913      4.25547      6.23373         0.066306     -0.525806      0.127665
C      0.08601      7.29314      7.29314        -0.040511     -0.918466     -0.205994
C      0.13007      6.23373      6.23373        -0.065557      0.229674      0.410932
C      0.08601      3.19606      3.19606         0.022745      1.440637      0.241811
C      0.13007      4.25547      4.25547        -0.005591     -0.570548     -0.289934
C     10.40319      7.29314      3.19606        -0.003399     -0.324943      0.256242
C     10.35913      6.23373      4.25547         0.031475      0.023271     -0.722506
C      7.29314     10.40319      3.19606        -0.276973      0.018462      0.524703
C      6.23373     10.35913      4.25547         0.128722      0.042210     -0.057350
C      7.29314      0.08601      7.29314        -0.958083     -0.079529     -0.284406
C      6.23373      0.13007      6.23373         0.842209     -0.199804      0.415965
C      3.19606      0.08601      3.19606         0.826395     -0.036762      0.538191
C      4.25547      0.13007      4.25547        -0.530051     -0.111320     -0.652972
C      3.19606     10.40319      7.29314         0.572220     -0.013593     -0.794369
C      4.25547     10.35913      6.23373        -0.251760      0.067022      0.223690
C      3.19606      7.29314     10.40319         0.314684     -1.317021      0.017177
C      4.25547      6.23373     10.35913        -1.097789      0.029926      0.123162
C      7.29314      7.29314      0.08601        -0.455122     -0.439588     -0.017110
C      6.23373      6.23373      0.13007         0.626546      0.227167      0.025959
C      3.19606      3.19606      0.08601         0.464585      0.333045     -0.039229
C      4.25547      4.25547      0.13007        -0.141291     -0.580639     -0.047542
C      7.29314      3.19606     10.40319        -0.410350      0.472902      0.055578
C      6.23373      4.25547     10.35913         0.259693     -0.765837      0.146228
O     10.43466      3.58206      8.50569        -0.023727      0.035678      0.418452
O     10.54374     17.39634      8.50569         0.071051     -0.053662      0.293981
O     10.54374      3.58206     12.47271         0.028086     -0.127989     -0.119827
O     10.43466     17.39634     12.47271        -0.024826     -0.168524     -0.515819
O      8.50569     10.43466      3.58206         0.279590     -0.022287      0.009790
O      8.50569     10.54374     17.39634         0.846655     -0.058473     -0.175344
O     12.47271     10.54374      3.58206        -0.740118      0.088388      0.070509
O     12.47271     10.43466     17.39634        -0.477495      0.038300     -0.064336
O      3.58206      8.50569     10.43466         0.160961      1.091953     -0.045496
O     17.39634      8.50569     10.54374        -0.155996      0.604405      0.064597
O      3.58206     12.47271     10.54374         0.095180     -0.435295      0.031051
O     17.39634     12.47271     10.43466        -0.144375     -0.578034     -0.031372
O      3.58206     10.43466      8.50569         0.056762     -0.093408      0.612484
O     17.39634     10.54374      8.50569        -0.003624      0.098168      0.380084
O      3.58206     10.54374     12.47271         0.041510      0.036568     -0.501952
O     17.39634     10.43466     12.47271        -0.227849     -0.043151     -0.643157
O     10.43466      8.50569      3.58206        -0.042321      0.441053      0.140367
O     10.54374      8.50569     17.39634        -0.076686      0.742022     -0.228389
O     10.54374     12.47271      3.58206         0.021230     -0.976165      0.104488
O     10.43466     12.47271     17.39634         0.069293     -0.829000     -0.229792
O      8.50569      3.58206     10.43466         0.592504      0.149333     -0.055585
O      8.50569     17.39634     10.54374         0.550133     -0.178385     -0.001932
O     12.47271      3.58206     10.54374        -0.618211      0.195309      0.002180
O     12.47271     17.39634     10.43466        -0.265008      0.072397     -0.044070
O     11.90042     11.90042     19.56718        -0.268654     -0.315108      0.217306
O     19.56718     19.56718     19.56718         0.327542      0.297126      0.228651
O     19.56718     11.90042     11.90042         0.317237     -0.259049     -0.234228
O     11.90042     19.56718     11.90042        -0.245180      0.298150     -0.338424
O      9.45224      1.03696      9.45224         0.001101      0.061840     -0.147327
O      1.03696      9.45224      9.45224         0.076553     -0.073940     -0.189960
O      1.03696      1.03696      1.03696         0.105634      0.173465      0.021158
O      9.45224      9.45224      1.03696        -0.099144     -0.114433      0.000922
Zr     10.48920      2.52580     10.48920        -0.080995     -0.206342     -0.013294
Zr     10.48920     18.45260     10.48920        -0.103052      0.179440      0.217276
Zr     10.48920     10.48920      2.52580        -0.055027     -0.457963     -0.175175
Zr     10.48920     10.48920     18.45260        -0.115460      0.055562      0.481331
Zr      2.52580     10.48920     10.48920        -0.320387      0.302662      0.352185
Zr     18.45260     10.48920     10.48920         0.157140      0.005591     -0.074600
Pd     13.63750      8.95352      9.12831        -0.004756     -0.030192      0.027894
Pd      5.68960      9.71929      9.91850         0.083846      0.008000      0.008086
Pd      6.91679     11.23337     11.73911        -0.090231      0.076042     -0.028813
Pd     12.16914     13.11703      7.36680        -0.001231     -0.031223     -0.031143
Pd     12.14342      7.86015      7.15958        -0.008238     -0.032913     -0.081931
Pd      8.28885      7.08982      6.53720        -0.018158     -0.042966     -0.027665
Pd     10.80425     11.31640      5.57924         0.060502     -0.004650      0.028711
Pd     14.69252      8.52774      6.69530        -0.075989      0.045891      0.020172
Pd      9.68684     11.75773      8.06618        -0.035421      0.027240     -0.014119
Pd      6.67873      6.81429     12.29971         0.011106     -0.022450      0.054407
Pd      6.43786      7.51358      8.32043        -0.070852      0.001270     -0.032601
Pd      7.06300      8.94205     13.81912        -0.089143     -0.011374     -0.005901
Pd     11.71970      6.56171      9.45339         0.015472     -0.039446     -0.025184
Pd      9.78710      9.27855      6.88166         0.029026      0.001792      0.006034
Pd      9.04962     13.93355      9.43840        -0.011591      0.015092      0.052762
Pd     10.10563      7.07410     11.45423         0.030313     -0.066651     -0.053658
Pd     10.58298      8.96737      9.48534        -0.104914     -0.026837     -0.012090
Pd      9.39608     11.23242     10.66308        -0.008764      0.023752     -0.056667
Pd      8.96154      6.94160      9.07896         0.021897      0.059737      0.083482
Pd      8.85682      7.03462     13.75670        -0.075053     -0.022617      0.058583
Pd      8.11415      8.84114     11.33710        -0.058251      0.014766     -0.010620
Pd     12.02748     10.50303      7.75047        -0.027049      0.070491      0.082846
Pd      7.18232     12.01106      9.20355        -0.013289      0.077423     -0.012016
Pd      8.05160      9.56157      8.76929        -0.009172     -0.030936      0.044691
Pd     14.28712      6.51463      8.45671        -0.113698      0.012247      0.028857
Pd     12.56355      8.29481     11.50266         0.043361     -0.056742     -0.060343
Pd      8.85687     11.35797     13.47058         0.014744     -0.018069      0.062440
Pd     13.89583     11.93139      9.06281        -0.035199     -0.038635     -0.012938
Pd     12.84074     10.62054     13.10173         0.031620      0.000177     -0.057962
Pd     14.68980     10.31485     11.16004        -0.028859      0.007828     -0.004542
Pd     12.02773     10.73254     10.60148         0.095277      0.157349      0.035688
Pd     11.47707     13.17013      9.89765        -0.026296     -0.042295      0.032836
Pd     13.56041     12.84071     11.68970        -0.027933     -0.013470     -0.011354
Pd     11.01528     12.59173     12.46463         0.035705     -0.024622     -0.057722
Pd     11.12940     11.39627     14.90643        -0.065435     -0.007781      0.000964
Pd     10.46577      9.46417     12.62622         0.029929      0.079245      0.047617
Pd      9.44136      9.36003     15.11622         0.055396     -0.029221     -0.001501
Pd      8.53985     13.48742     12.00147         0.090455      0.035734     -0.047288
