152
# total energy = -1022.85997590 eVH     10.35389      5.87395      7.64558         0.480266      0.030718      0.901196
H     10.62451     15.10445      7.64558        -0.048798      0.045059      0.775529
H     10.62451      5.87395     13.33282         0.144795      0.115803     -0.606629
H     10.35389     15.10445     13.33282        -0.259709     -0.079586     -0.562061
H      7.64558     10.35389      5.87395         0.331456     -0.035619      0.190182
H      7.64558     10.62451     15.10445         0.616569     -0.191259     -0.142979
H     13.33282     10.62451      5.87395        -0.852024     -0.315849      0.168883
H     13.33282     10.35389     15.10445        -0.451630     -0.081152     -0.068375
H      5.87395      7.64558     10.35389         0.128971      1.122785     -0.155736
H     15.10445      7.64558     10.62451        -0.170163      0.404306     -0.087299
H      5.87395     13.33282     10.62451         0.143018     -0.406685     -0.071892
H     15.10445     13.33282     10.35389        -0.079110     -0.970462     -0.184768
H      5.87395     10.35389      7.64558         0.127835      0.039742      0.480794
H     15.10445     10.62451      7.64558         0.122157     -0.207463      0.821511
H      5.87395     10.62451     13.33282         0.268049     -0.028023     -0.393851
H     15.10445     10.35389     13.33282        -0.152697      0.015244     -0.614450
H     10.35389      7.64558      5.87395         0.065609      0.852610      0.118450
H     10.62451      7.64558     15.10445         0.023277      0.563560     -0.143358
H     10.62451     13.33282      5.87395         0.060465     -0.601206      0.181531
H     10.35389     13.33282     15.10445        -0.252781     -0.890822     -0.109257
H      7.64558      5.87395     10.35389         0.524314      0.042737     -0.132220
H      7.64558     15.10445     10.62451         0.915955     -0.208139      0.288505
H     13.33282      5.87395     10.62451        -0.437408      0.186859     -0.058896
H     13.33282     15.10445     10.35389        -0.990506     -0.102058      0.259545
H     12.45634     12.45634     19.01126         0.266655      0.257362     -0.224881
H     19.01126     19.01126     19.01126        -0.247578     -0.235091     -0.262213
H     19.01126     12.45634     12.45634        -0.240877      0.270326      0.239288
H     12.45634     19.01126     12.45634         0.211239     -0.282785      0.252739
C     10.35284      5.61067      6.59456        -0.127368     -0.435568     -0.395005
C     10.62556     15.36773      6.59456         0.022360      0.346221     -1.161617
C     10.62556      5.61067     14.38384        -0.029639     -0.221953      0.727376
C     10.35284     15.36773     14.38384         0.177136      0.774148      0.156510
C      6.59456     10.35284      5.61067        -0.412262     -0.040184     -0.180468
C      6.59456     10.62556     15.36773        -0.784784      0.151692      0.349159
C     14.38384     10.62556      5.61067         0.614740      0.286409     -0.370213
C     14.38384     10.35284     15.36773         0.724956     -0.119175      0.423312
C      5.61067      6.59456     10.35284        -0.426486     -0.749936      0.282557
C     15.36773      6.59456     10.62556         0.197294     -0.467502      0.047533
C      5.61067     14.38384     10.62556        -0.254584      0.376447     -0.024353
C     15.36773     14.38384     10.35284         0.397946      0.141267      0.184904
C      5.61067     10.35284      6.59456        -0.309842     -0.014452     -0.890000
C     15.36773     10.62556      6.59456         0.574645     -0.159983     -1.235439
C      5.61067     10.62556     14.38384        -0.457789      0.008003      0.889535
C     15.36773     10.35284     14.38384         0.519627     -0.177430      1.242624
C     10.35284      6.59456      5.61067        -0.039495     -0.907227     -0.668523
C     10.62556      6.59456     15.36773         0.045623     -0.674556      0.296197
C     10.62556     14.38384      5.61067         0.044355      1.242065     -0.689860
C     10.35284     14.38384     15.36773         0.105506      0.603858      0.653899
C      6.59456      5.61067     10.35284        -0.212423     -0.896654      0.130908
C      6.59456     15.36773     10.62556        -1.725116      0.493136      0.046701
C     14.38384      5.61067     10.62556         0.584761     -0.227756     -0.008013
C     14.38384     15.36773     10.35284         0.138402      0.560477     -0.240557
C     10.40319      3.19606      7.29314         0.015169      0.901435     -0.252597
C     10.35913      4.25547      6.23373        -0.051847     -0.372284      0.607089
C      0.08601      7.29314      7.29314        -0.008740     -0.237734     -0.468923
C      0.13007      6.23373      6.23373         0.004273      0.121182      0.211032
C      0.08601      3.19606      3.19606        -0.016501      0.639511      0.181864
C      0.13007      4.25547      4.25547        -0.090882     -0.199254     -0.168349
C     10.40319      7.29314      3.19606        -0.002254     -0.690277      0.530082
C     10.35913      6.23373      4.25547        -0.008681      0.505469     -0.405462
C      7.29314     10.40319      3.19606        -0.339787      0.022963      0.860063
C      6.23373     10.35913      4.25547         0.209067      0.012275     -0.142269
C      7.29314      0.08601      7.29314        -0.308654     -0.046186     -0.272890
C      6.23373      0.13007      6.23373         0.269545     -0.058520      0.295122
C      3.19606      0.08601      3.19606         0.438081     -0.051879      1.293505
C      4.25547      0.13007      4.25547        -0.115479     -0.028733     -0.462120
C      3.19606     10.40319      7.29314         0.702581      0.014610     -0.264593
C      4.25547     10.35913      6.23373        -0.133975      0.030540      0.103146
C      3.19606      7.29314     10.40319         0.608593     -1.270441      0.025041
C      4.25547      6.23373     10.35913        -0.719441      0.840555      0.047487
C      7.29314      7.29314      0.08601        -0.655608     -0.170892     -0.022106
C      6.23373      6.23373      0.13007         0.172193      0.270528     -0.008335
C      3.19606      3.19606      0.08601         0.241691      0.251242     -0.019493
C      4.25547      4.25547      0.13007        -0.054440     -0.036823      0.011809
C      7.29314      3.19606     10.40319        -0.372308      0.798799      0.015205
C      6.23373      4.25547     10.35913         0.883256     -0.158019      0.008370
O     10.43466      3.58206      8.50569        -0.049186      0.034103      0.321720
O     10.54374     17.39634      8.50569        -0.024302     -0.181961      0.601209
O     10.54374      3.58206     12.47271         0.054860      0.063547     -0.324680
O     10.43466     17.39634     12.47271        -0.022758     -0.126138     -0.584363
O      8.50569     10.43466      3.58206         0.380352     -0.025029     -0.014182
O      8.50569     10.54374     17.39634         0.470826      0.053159     -0.143442
O     12.47271     10.54374      3.58206        -0.286070      0.048440     -0.074535
O     12.47271     10.43466     17.39634        -0.852236      0.020177     -0.224907
O      3.58206      8.50569     10.43466         0.042636      0.923599      0.039812
O     17.39634      8.50569     10.54374        -0.039829      0.338689      0.077839
O      3.58206     12.47271     10.54374         0.064391     -0.421600      0.064254
O     17.39634     12.47271     10.43466        -0.170475     -0.780796      0.020155
O      3.58206     10.43466      8.50569        -0.055535     -0.066477      0.227410
O     17.39634     10.54374      8.50569        -0.136562      0.042646      0.459675
O      3.58206     10.54374     12.47271        -0.015100     -0.051735     -0.890485
O     17.39634     10.43466     12.47271        -0.198103      0.043280     -0.767175
O     10.43466      8.50569      3.58206         0.044494      0.679304      0.189917
O     10.54374      8.50569     17.39634         0.053614      0.433893     -0.080531
O     10.54374     12.47271      3.58206        -0.006850     -0.726842      0.226128
O     10.43466     12.47271     17.39634         0.047478     -0.848704     -0.274075
O      8.50569      3.58206     10.43466         0.491239      0.074427     -0.038384
O      8.50569     17.39634     10.54374         0.653818     -0.252051     -0.060802
O     12.47271      3.58206     10.54374        -0.484911      0.163500      0.039657
O     12.47271     17.39634     10.43466        -0.530947     -0.037319     -0.029409
O     11.90042     11.90042     19.56718        -0.304378     -0.312437      0.264498
O     19.56718     19.56718     19.56718         0.287001      0.271736      0.320658
O     19.56718     11.90042     11.90042         0.279394     -0.330671     -0.244993
O     11.90042     19.56718     11.90042        -0.229062      0.290266     -0.241105
O      9.45224      1.03696      9.45224        -0.074680      0.047437     -0.066998
O      1.03696      9.45224      9.45224         0.054653     -0.145225     -0.057722
O      1.03696      1.03696      1.03696         0.043250      0.032909      0.187023
O      9.45224      9.45224      1.03696        -0.040438     -0.092387      0.121799
Zr     10.48920      2.52580     10.48920        -0.007756     -0.073242     -0.023619
Zr     10.48920     18.45260     10.48920         0.058890      0.307327     -0.072315
Zr     10.48920     10.48920      2.52580        -0.101685      0.015451     -0.371243
Zr     10.48920     10.48920     18.45260        -0.133495     -0.152472      0.328202
Zr      2.52580     10.48920     10.48920        -0.351222      0.316553     -0.463499
Zr     18.45260     10.48920     10.48920         0.243868      0.036678     -0.263162
Pd      9.04101     10.25769     13.32957        -0.013187     -0.015040      0.005560
Pd     10.58451      9.72615     10.98128        -0.005228     -0.011789     -0.039395
Pd     13.76443      8.53907     12.68470         0.005151      0.003110     -0.004738
Pd     11.00090     11.07203     15.01666        -0.001555     -0.016432     -0.000797
Pd     12.85179     11.17514     13.01111         0.022693      0.005586      0.011608
Pd     14.98252     10.93847     11.34322         0.011655      0.010166     -0.008181
Pd      6.64905      7.44044     12.34194         0.000528      0.020703      0.001133
Pd      9.22979      7.26432     10.11850         0.005866      0.012111     -0.030237
Pd      9.26499      7.60334     12.79482         0.010590     -0.010292     -0.021624
Pd     11.69717      7.28735     11.46349         0.006229      0.001210     -0.010973
Pd     11.40487      7.99530      8.86157         0.029068     -0.003936     -0.012455
Pd      7.26327     11.83434     11.95344         0.004598     -0.002846     -0.014676
Pd      8.90535     14.67561      9.33487         0.036061      0.007951      0.015071
Pd      8.41707     12.65379     14.32193        -0.008806     -0.009566     -0.001738
Pd     13.54175     14.09733      8.55453         0.080511      0.026508     -0.047269
Pd     10.99456     13.34506      8.52238         0.070439      0.034785      0.039259
Pd     14.09250     11.52640      8.92657         0.002165      0.024671     -0.004465
Pd      8.62042     14.10684     12.10237         0.009565     -0.005781      0.001100
Pd     12.24230     13.72808     14.02515        -0.003615     -0.007315      0.004529
Pd     11.15751     14.43666     11.15680         0.029621     -0.015058      0.043805
Pd     14.05951     13.54991     12.17491        -0.010940      0.012282     -0.004756
Pd     12.31150     12.15570     10.67113        -0.001037     -0.027415      0.012320
Pd     12.67288     12.33595      6.71685         0.012782      0.034470     -0.017461
Pd     13.66615      8.94139      7.92523         0.033580      0.005538      0.003727
Pd      6.86412      8.46331      8.85157         0.010520      0.011568     -0.005044
Pd      5.52868      9.93817     11.25938         0.004066      0.029501     -0.053079
Pd      9.15269      9.73962      8.31018         0.028281     -0.019180     -0.015676
Pd      8.81342      7.23447      7.45873        -0.015892     -0.005547     -0.031324
Pd      9.52974     12.08500     10.42213         0.023838      0.004110      0.003217
Pd     11.53898     10.71234      8.57048         0.018779      0.010448     -0.031224
Pd     11.25082      9.23467      6.44036         0.038859     -0.022197     -0.010795
Pd      9.91199     11.54935      6.38727         0.022159     -0.025708     -0.013029
Ir     11.35141      9.09948     13.36002        -0.001681      0.015100     -0.034612
Ir     13.07614      9.48527     10.39490         0.009302      0.011406     -0.006977
Ir     10.53105     12.35681     12.70953        -0.004259     -0.020662      0.009077
Ir      7.15201     10.98058      9.50177         0.037406     -0.002471     -0.009140
Ir      8.41266     12.46127      8.18401         0.069931      0.029878     -0.022351
Ir      8.06753      9.29761     11.11629        -0.003993      0.007769     -0.005850
