21
# total energy = -130.20292197 eVH      5.96523      5.96404      7.50000         0.013097      0.004593      0.000000
H      2.20580      8.16157      7.50000        -0.010626      0.009313     -0.000000
H      2.18240      3.80704      7.50000        -0.002640     -0.013593     -0.000000
H      4.38819      0.01351      7.50000        -0.013097     -0.004593     -0.000000
H      8.14762     -2.18402      7.50000         0.010626     -0.009313      0.000000
H      8.17102      2.17051      7.50000         0.002640      0.013593      0.000000
C      8.26803     -0.00729      7.50000        -0.205327      0.025051      0.000000
C      6.22572      1.18630      7.50000         0.082755     -0.187632     -0.000000
C      6.21319     -1.17919      7.50000         0.119293      0.168253      0.000000
C      2.08539      5.98484      7.50000         0.205327     -0.025051      0.000000
C      4.12770      4.79125      7.50000        -0.082755      0.187632      0.000000
C      4.14023      7.15674      7.50000        -0.119293     -0.168253     -0.000000
C      7.60987     -1.24016      7.50000         0.023620     -0.002600     -0.000000
C      7.62250      1.23287      7.50000        -0.008799      0.019198      0.000000
C      5.47447      0.00729      7.50000        -0.012212     -0.021091      0.000000
C      2.74355      7.21771      7.50000        -0.023620      0.002600      0.000000
C      2.73092      4.74468      7.50000         0.008799     -0.019198      0.000000
C      4.87895      5.97026      7.50000         0.012212      0.021091     -0.000000
Au      5.17671     -2.98877      7.50000         0.000000      0.000000      0.000000
Au      0.00000      5.97755      7.50000         0.000000      0.000000      0.000000
Au      5.17671      2.98877      7.50000         0.000000      0.000000      0.000000
