152
# total energy = -1110.36846135 eVH     10.35389      5.87395      7.64558        -0.346815     -0.152651      1.042810
H     10.62451     15.10445      7.64558         0.374811      0.087138      0.944562
H     10.62451      5.87395     13.33282        -0.311363     -0.708765     -1.402101
H     10.35389     15.10445     13.33282        -0.632546      0.389933     -0.323348
H      7.64558     10.35389      5.87395         0.542928     -0.537738     -0.084088
H      7.64558     10.62451     15.10445         0.362303     -0.241112      0.041371
H     13.33282     10.62451      5.87395        -0.534356      0.618268     -0.021945
H     13.33282     10.35389     15.10445        -0.530091      0.414112      0.163027
H      5.87395      7.64558     10.35389         0.143025      0.507687      0.034940
H     15.10445      7.64558     10.62451         0.430952      0.885839      0.256617
H      5.87395     13.33282     10.62451        -0.227893     -0.455712      0.363511
H     15.10445     13.33282     10.35389         0.030570     -0.309130     -0.389909
H      5.87395     10.35389      7.64558        -0.073523     -0.357550      1.439557
H     15.10445     10.62451      7.64558         0.206303      0.429873      1.270443
H      5.87395     10.62451     13.33282        -0.159788     -0.343928     -1.142142
H     15.10445     10.35389     13.33282         0.548763      0.900262     -1.518516
H     10.35389      7.64558      5.87395        -0.538180      0.498384     -0.191394
H     10.62451      7.64558     15.10445        -0.138101      0.531218      0.193568
H     10.62451     13.33282      5.87395         0.900115     -1.396859     -0.328147
H     10.35389     13.33282     15.10445         0.276823     -0.550415     -0.077939
H      7.64558      5.87395     10.35389         0.718547      0.173689     -0.144666
H      7.64558     15.10445     10.62451         1.974898      0.805699      0.196441
H     13.33282      5.87395     10.62451        -2.694216     -0.980639     -0.441158
H     13.33282     15.10445     10.35389        -0.872900     -0.044000     -0.253285
H     12.45634     12.45634     19.01126         0.271841      0.257824     -0.227432
H     19.01126     19.01126     19.01126        -0.266774     -0.254685     -0.238197
H     19.01126     12.45634     12.45634        -0.282803      0.281085      0.186960
H     12.45634     19.01126     12.45634         0.256051     -0.251672      0.235922
C     10.35284      5.61067      6.59456         0.093363     -0.501801     -1.247853
C     10.62556     15.36773      6.59456         0.166013      0.766096     -0.841200
C     10.62556      5.61067     14.38384         0.175453     -0.322281      1.813732
C     10.35284     15.36773     14.38384         0.116460      0.395300      1.809374
C      6.59456     10.35284      5.61067        -1.123312     -0.110905     -0.851131
C      6.59456     10.62556     15.36773        -0.682443     -0.104911      0.742166
C     14.38384     10.62556      5.61067         0.878237     -0.114576     -0.999672
C     14.38384     10.35284     15.36773         1.205553      0.165563      1.105996
C      5.61067      6.59456     10.35284        -0.684198     -0.823483     -0.167631
C     15.36773      6.59456     10.62556         1.953209     -0.212565     -0.180152
C      5.61067     14.38384     10.62556        -1.577149     -0.007044     -0.117714
C     15.36773     14.38384     10.35284         0.486287      0.056032      0.026151
C      5.61067     10.35284      6.59456        -0.271866      0.201828     -1.351534
C     15.36773     10.62556      6.59456         0.279372     -0.210029     -1.000131
C      5.61067     10.62556     14.38384        -0.273704      0.393784      1.424597
C     15.36773     10.35284     14.38384         0.065427     -0.434418      1.913326
C     10.35284      6.59456      5.61067        -0.195288     -0.912682     -0.689307
C     10.62556      6.59456     15.36773        -0.101748     -0.796107      1.050071
C     10.62556     14.38384      5.61067        -0.488168      2.038955     -0.783906
C     10.35284     14.38384     15.36773        -0.290188      1.457833      0.474868
C      6.59456      5.61067     10.35284        -0.960641     -0.413168      0.078750
C      6.59456     15.36773     10.62556        -1.330112      0.356009     -0.332085
C     14.38384      5.61067     10.62556         1.297951     -1.179510      0.161135
C     14.38384     15.36773     10.35284         0.414596      0.317034      0.060532
C     10.40319      3.19606      7.29314         0.002833      0.310146     -0.099463
C     10.35913      4.25547      6.23373         0.137723     -0.516484      0.024903
C      0.08601      7.29314      7.29314        -0.053766     -0.305734     -0.429549
C      0.13007      6.23373      6.23373        -0.125585      0.719088      0.039197
C      0.08601      3.19606      3.19606        -0.109172      1.625079      0.172995
C      0.13007      4.25547      4.25547        -0.086439     -0.406809     -1.244065
C     10.40319      7.29314      3.19606         0.016822     -0.426369      0.129213
C     10.35913      6.23373      4.25547         0.260327      0.079804     -0.493601
C      7.29314     10.40319      3.19606        -1.664387      0.005815      0.326545
C      6.23373     10.35913      4.25547         0.653666      0.077424     -0.610789
C      7.29314      0.08601      7.29314        -0.399648     -0.010730     -0.299451
C      6.23373      0.13007      6.23373         0.644087     -0.053869      0.270849
C      3.19606      0.08601      3.19606         0.660458     -0.015933      0.188057
C      4.25547      0.13007      4.25547        -0.373249     -0.066597     -0.502757
C      3.19606     10.40319      7.29314         0.377667      0.018380     -0.318423
C      4.25547     10.35913      6.23373        -0.726416      0.061336      0.371720
C      3.19606      7.29314     10.40319         0.302037     -0.216294     -0.006142
C      4.25547      6.23373     10.35913         0.052823      0.647786      0.093178
C      7.29314      7.29314      0.08601        -0.718487     -0.597895     -0.017257
C      6.23373      6.23373      0.13007         0.826998      1.139843     -0.077496
C      3.19606      3.19606      0.08601         0.809657      0.492193      0.011857
C      4.25547      4.25547      0.13007        -0.324886     -1.722023     -0.122475
C      7.29314      3.19606     10.40319        -0.332159      0.277918     -0.003356
C      6.23373      4.25547     10.35913         0.517446     -0.033431      0.229852
O     10.43466      3.58206      8.50569        -0.047664      0.181396      0.258316
O     10.54374     17.39634      8.50569         0.041524     -0.231729      0.485140
O     10.54374      3.58206     12.47271         0.085200     -0.058818     -0.041386
O     10.43466     17.39634     12.47271        -0.023057     -0.140113     -0.279387
O      8.50569     10.43466      3.58206         0.983065      0.182645      0.388456
O      8.50569     10.54374     17.39634         0.567308      0.083830     -0.227067
O     12.47271     10.54374      3.58206        -0.429160     -0.038197      0.188822
O     12.47271     10.43466     17.39634        -0.523269     -0.070599     -0.199244
O      3.58206      8.50569     10.43466         0.179782      0.437664     -0.030867
O     17.39634      8.50569     10.54374        -0.228631      0.713966      0.042624
O      3.58206     12.47271     10.54374         0.159366     -0.667850      0.024417
O     17.39634     12.47271     10.43466        -0.185218     -0.482999     -0.012980
O      3.58206     10.43466      8.50569         0.221178     -0.059095      0.400508
O     17.39634     10.54374      8.50569        -0.169848      0.036841      0.410088
O      3.58206     10.54374     12.47271         0.144084      0.021142     -0.307447
O     17.39634     10.43466     12.47271         0.068162     -0.050102     -0.087986
O     10.43466      8.50569      3.58206        -0.001098      0.277351      0.179300
O     10.54374      8.50569     17.39634         0.071091      0.439372     -0.182278
O     10.54374     12.47271      3.58206        -0.222412     -0.965925      0.346686
O     10.43466     12.47271     17.39634        -0.084622     -0.448572     -0.244627
O      8.50569      3.58206     10.43466         0.497648      0.195518     -0.013064
O      8.50569     17.39634     10.54374         0.659073     -0.194881      0.022608
O     12.47271      3.58206     10.54374        -0.736920      0.278125      0.036597
O     12.47271     17.39634     10.43466        -0.442276     -0.200326     -0.044383
O     11.90042     11.90042     19.56718        -0.345329     -0.307441      0.258869
O     19.56718     19.56718     19.56718         0.325770      0.310933      0.281803
O     19.56718     11.90042     11.90042         0.278152     -0.277952     -0.141165
O     11.90042     19.56718     11.90042        -0.306988      0.287746     -0.234024
O      9.45224      1.03696      9.45224        -0.057435      0.071117     -0.048225
O      1.03696      9.45224      9.45224         0.035417     -0.072893     -0.072937
O      1.03696      1.03696      1.03696         0.057245      0.138957      0.104417
O      9.45224      9.45224      1.03696        -0.131792     -0.089284      0.104184
Zr     10.48920      2.52580     10.48920         0.145916     -0.164498     -0.161719
Zr     10.48920     18.45260     10.48920        -0.093363      0.179619     -0.042301
Zr     10.48920     10.48920      2.52580         0.327695     -0.309632     -0.197564
Zr     10.48920     10.48920     18.45260         0.003185     -0.084262      0.208433
Zr      2.52580     10.48920     10.48920        -0.064943      0.164885     -0.051082
Zr     18.45260     10.48920     10.48920         0.136746     -0.123033     -0.247705
Ir     12.05725     12.48863     10.46280        -0.002577     -0.000802      0.009084
Ir     11.16311      7.41695     10.31881         0.041495     -0.000355     -0.017103
Ir      8.81135      7.39142     11.58182         0.012564     -0.036141     -0.012583
Ir      7.48502     11.66382      7.65451        -0.001282     -0.008289      0.004693
Ir     11.59581     12.09369      7.12431         0.004432      0.001681     -0.000531
Ir     13.74433      8.97801      7.55991         0.003161      0.004732      0.010716
Ir     12.50063     13.95389      8.42060        -0.007991     -0.000074     -0.002451
Ir      9.71848     11.26634      5.56907         0.003499      0.001597     -0.008394
Ir      9.08536     13.47208      7.07536        -0.007476     -0.002863      0.005276
Ir      9.28802      9.66374      7.53471        -0.004245      0.001625     -0.015770
Ir     13.25904      7.04077     11.95252         0.010718      0.008261      0.007887
Ir     13.55370      7.02733      9.12067         0.027941      0.015025     -0.007510
Ir     11.01937      7.60768     12.86077         0.022235     -0.010019     -0.011153
Ir     13.61439     11.55799      8.75740         0.002644      0.004785     -0.001902
Ir     11.50489      9.65860      6.23846         0.001112     -0.009139     -0.009701
Ir      7.14549      9.19641      8.94725        -0.012805     -0.017321     -0.024386
Ir     14.05985     11.42066     11.66412        -0.004970      0.009375     -0.004469
Ir     11.65116      9.86990      8.90173         0.016184     -0.013233     -0.011249
Ir      9.42697      9.53061     10.25322         0.017911      0.005139     -0.006727
Ir     13.85759      9.39337     10.19104        -0.000889      0.011681     -0.011287
Ir     13.80556      9.15250     12.91669         0.002992     -0.000044     -0.019344
Ir     11.68357      9.76542     11.57489         0.013378      0.000676     -0.008324
Ir      9.91293     11.76029      8.97836        -0.001789     -0.019845     -0.001047
Ir      9.03698      7.44069      8.84708         0.031642     -0.011474     -0.025627
Ir     11.51435      7.58993      7.79193         0.047301     -0.024165     -0.021140
Ir      9.24489      9.50677     13.02186         0.012698     -0.012125      0.001087
Ir      7.52830     13.92635      8.99068        -0.002690     -0.008788      0.001132
Ir     10.90643     14.12782     11.94700        -0.016295     -0.018946     -0.003613
Ir     10.12728     14.17585      9.52197        -0.003286     -0.005327      0.002596
Ir      9.80102     11.71014     11.72774         0.008252     -0.019974      0.007820
Ir      7.59077     11.60318     10.21101        -0.004877     -0.018018     -0.001932
Ir      8.37443     13.77213     11.58556        -0.011333     -0.007594      0.004792
Ir      7.52929     11.60329     12.82996        -0.001921     -0.017877      0.004717
Ir      9.76604     11.63900     14.34428         0.004372     -0.008666      0.004936
Ir     13.50050     13.87780     12.19347        -0.011845     -0.007522     -0.000230
Ir     11.99713     12.06104     13.08896        -0.002229     -0.004524     -0.024112
Ir     11.56829      9.82046     14.21316         0.003297     -0.006261     -0.013633
Ir      7.14059      9.40765     11.50445        -0.012948     -0.021850      0.008268
