152
# total energy = -1060.46136941 eVH     10.35389      5.87395      7.64558        -0.224930      0.135543      0.999865
H     10.62451     15.10445      7.64558         0.292490     -0.084880      0.825943
H     10.62451      5.87395     13.33282        -0.307278      0.079176     -0.745346
H     10.35389     15.10445     13.33282         0.152995     -0.278189     -0.762891
H      7.64558     10.35389      5.87395         0.870262     -0.238224      0.213536
H      7.64558     10.62451     15.10445         0.248402      0.026350     -0.060299
H     13.33282     10.62451      5.87395        -0.810812      0.110810      0.154190
H     13.33282     10.35389     15.10445        -0.299250     -0.083664     -0.032542
H      5.87395      7.64558     10.35389         0.098101      0.424883      0.009489
H     15.10445      7.64558     10.62451        -0.097416      0.574830      0.154636
H      5.87395     13.33282     10.62451         0.010373     -0.924885      0.103194
H     15.10445     13.33282     10.35389        -0.186836     -0.382371      0.026420
H      5.87395     10.35389      7.64558         0.290967      0.051559      0.368020
H     15.10445     10.62451      7.64558        -0.126629     -0.140567      0.605896
H      5.87395     10.62451     13.33282        -0.055372      0.435099     -0.698748
H     15.10445     10.35389     13.33282         0.178777     -0.451583     -0.915171
H     10.35389      7.64558      5.87395         0.020559      0.505928      0.356520
H     10.62451      7.64558     15.10445         0.231644      0.674965     -0.094790
H     10.62451     13.33282      5.87395         0.079962     -0.560249      0.213581
H     10.35389     13.33282     15.10445         0.069614     -0.348254     -0.124756
H      7.64558      5.87395     10.35389         0.401754      0.131194      0.061267
H      7.64558     15.10445     10.62451         0.388988     -0.129240      0.210291
H     13.33282      5.87395     10.62451        -0.310643      0.128146     -0.014201
H     13.33282     15.10445     10.35389        -0.640162     -0.177816      0.187580
H     12.45634     12.45634     19.01126         0.261371      0.268976     -0.222479
H     19.01126     19.01126     19.01126        -0.249977     -0.269132     -0.237088
H     19.01126     12.45634     12.45634        -0.243596      0.269272      0.241051
H     12.45634     19.01126     12.45634         0.294504     -0.227212      0.236539
C     10.35284      5.61067      6.59456         0.390509     -0.328703     -1.217979
C     10.62556     15.36773      6.59456        -0.218751      0.648698     -0.576036
C     10.62556      5.61067     14.38384         0.352283     -0.269393      0.780530
C     10.35284     15.36773     14.38384        -0.196527      0.352581      0.951967
C      6.59456     10.35284      5.61067        -1.266856      0.030164     -0.213542
C      6.59456     10.62556     15.36773        -0.635581      0.064981      0.364038
C     14.38384     10.62556      5.61067         1.375105     -0.154339     -0.617735
C     14.38384     10.35284     15.36773         0.325983     -0.131733      0.414934
C      5.61067      6.59456     10.35284        -0.261658     -0.619384     -0.016930
C     15.36773      6.59456     10.62556         0.368264     -0.867244     -0.115267
C      5.61067     14.38384     10.62556        -0.171103      1.056757     -0.255675
C     15.36773     14.38384     10.35284         0.457760      0.785950     -0.077626
C      5.61067     10.35284      6.59456        -0.298878     -0.112303     -0.600447
C     15.36773     10.62556      6.59456         0.311663      0.117196     -0.541412
C      5.61067     10.62556     14.38384        -0.299213     -0.157045      1.245035
C     15.36773     10.35284     14.38384         0.177746      0.156051      1.257993
C     10.35284      6.59456      5.61067        -0.048869     -0.702381     -0.435330
C     10.62556      6.59456     15.36773        -0.049882     -0.819338      0.376050
C     10.62556     14.38384      5.61067        -0.467038      0.388641     -0.778895
C     10.35284     14.38384     15.36773        -0.164128      0.649634      0.498709
C      6.59456      5.61067     10.35284        -0.541812     -0.318637      0.024648
C      6.59456     15.36773     10.62556        -0.289013      0.488630      0.082172
C     14.38384      5.61067     10.62556         0.411454     -0.327415      0.038859
C     14.38384     15.36773     10.35284         1.059298      0.382580     -0.109125
C     10.40319      3.19606      7.29314        -0.012102      0.896225     -0.366268
C     10.35913      4.25547      6.23373         0.041846     -0.378046      0.290740
C      0.08601      7.29314      7.29314        -0.015614     -0.509295     -0.507958
C      0.13007      6.23373      6.23373        -0.074806      0.826472      0.056939
C      0.08601      3.19606      3.19606        -0.008886      0.671873      0.265193
C      0.13007      4.25547      4.25547         0.068533     -0.251374     -0.616307
C     10.40319      7.29314      3.19606        -0.049807     -1.077239      0.762555
C     10.35913      6.23373      4.25547        -0.044763      0.348223     -0.220170
C      7.29314     10.40319      3.19606        -1.011819     -0.053887      0.266782
C      6.23373     10.35913      4.25547         0.377247      0.111170     -0.522659
C      7.29314      0.08601      7.29314        -0.714552      0.018587     -0.364934
C      6.23373      0.13007      6.23373         0.173797      0.092545      0.115685
C      3.19606      0.08601      3.19606         0.636837      0.009000      0.171059
C      4.25547      0.13007      4.25547        -0.205711     -0.086431     -0.300271
C      3.19606     10.40319      7.29314         0.497142     -0.034924     -0.955227
C      4.25547     10.35913      6.23373        -0.137394     -0.019636      0.159718
C      3.19606      7.29314     10.40319         0.667366     -0.404941      0.006027
C      4.25547      6.23373     10.35913        -0.112921      0.173839      0.001459
C      7.29314      7.29314      0.08601        -0.424626     -0.297046     -0.016817
C      6.23373      6.23373      0.13007         0.206506      0.123925     -0.130844
C      3.19606      3.19606      0.08601         0.322784      0.543756     -0.021218
C      4.25547      4.25547      0.13007        -0.440267     -0.281012     -0.012160
C      7.29314      3.19606     10.40319        -0.280885      0.618673     -0.001772
C      6.23373      4.25547     10.35913         0.015350     -0.150749      0.020388
O     10.43466      3.58206      8.50569        -0.033148      0.039272      0.245666
O     10.54374     17.39634      8.50569         0.059257     -0.075010      0.520959
O     10.54374      3.58206     12.47271         0.031588      0.106768     -0.424110
O     10.43466     17.39634     12.47271         0.086793     -0.055713     -0.495042
O      8.50569     10.43466      3.58206         0.676686     -0.077487      0.039717
O      8.50569     10.54374     17.39634         0.732907      0.083255     -0.118307
O     12.47271     10.54374      3.58206        -0.612098      0.126983      0.209312
O     12.47271     10.43466     17.39634        -0.350937     -0.000298      0.035254
O      3.58206      8.50569     10.43466         0.021580      0.441757     -0.074250
O     17.39634      8.50569     10.54374        -0.075260      0.440014      0.050417
O      3.58206     12.47271     10.54374         0.127225     -0.616492     -0.003476
O     17.39634     12.47271     10.43466        -0.226623     -0.746082     -0.016752
O      3.58206     10.43466      8.50569         0.182976     -0.044261      0.798706
O     17.39634     10.54374      8.50569        -0.003346      0.042333      0.327010
O      3.58206     10.54374     12.47271         0.000241      0.002582     -0.281236
O     17.39634     10.43466     12.47271        -0.015991     -0.000698     -0.319053
O     10.43466      8.50569      3.58206        -0.113530      0.530797     -0.088709
O     10.54374      8.50569     17.39634         0.057631      0.590406     -0.074942
O     10.54374     12.47271      3.58206         0.101672     -0.605977      0.114140
O     10.43466     12.47271     17.39634        -0.049155     -0.834194     -0.311433
O      8.50569      3.58206     10.43466         0.378975      0.021088     -0.059706
O      8.50569     17.39634     10.54374         0.610451     -0.144521      0.049002
O     12.47271      3.58206     10.54374        -0.510984      0.119175      0.027209
O     12.47271     17.39634     10.43466        -0.625771     -0.103549      0.050420
O     11.90042     11.90042     19.56718        -0.273080     -0.284631      0.222520
O     19.56718     19.56718     19.56718         0.300711      0.314964      0.290460
O     19.56718     11.90042     11.90042         0.276496     -0.315916     -0.245800
O     11.90042     19.56718     11.90042        -0.315540      0.217250     -0.202616
O      9.45224      1.03696      9.45224        -0.113087      0.137543     -0.045806
O      1.03696      9.45224      9.45224         0.144112     -0.139143     -0.044330
O      1.03696      1.03696      1.03696         0.079043      0.075501      0.087252
O      9.45224      9.45224      1.03696        -0.077447     -0.127818      0.142326
Zr     10.48920      2.52580     10.48920         0.038735     -0.150676      0.159444
Zr     10.48920     18.45260     10.48920        -0.178035      0.239855     -0.386013
Zr     10.48920     10.48920      2.52580         0.119004      0.364842     -0.289706
Zr     10.48920     10.48920     18.45260        -0.031268     -0.260773      0.287631
Zr      2.52580     10.48920     10.48920        -0.300793      0.092730      0.250081
Zr     18.45260     10.48920     10.48920         0.181880     -0.149972     -0.043148
Pd      9.33417     14.40100      9.20956        -0.046454      0.049815     -0.096940
Pd      8.59555     13.68668     13.11445        -0.012608      0.002974      0.008521
Pd     12.03429     14.35846      8.81933        -0.013402      0.014489      0.044913
Pd     12.57212     12.84445     10.85227         0.015117     -0.114103     -0.023203
Pd     12.09708      7.13635     12.57511         0.023787      0.027004     -0.000328
Pd     11.04953     15.06414     11.35543         0.025571      0.073659     -0.003186
Pd      9.91929     12.71870     10.99833        -0.089868     -0.061788      0.059812
Pd     13.55107     12.23035      8.04812         0.022665      0.078842     -0.009156
Pd     11.53132     11.63194      6.12801         0.014969      0.037725      0.052828
Pd      7.90758      8.20335      7.50469        -0.060391      0.001318     -0.040536
Pd      8.70763     11.78435      6.82544         0.041155     -0.014890      0.047546
Pd     10.13683      9.52338      8.21916        -0.098527     -0.001375     -0.023961
Pd      8.49918     14.49503      6.69166        -0.070153     -0.027927     -0.016518
Pd     12.33237      9.21403      6.89304        -0.037346      0.053810      0.056887
Pd      9.79744      9.62790      5.59372         0.065282      0.059743      0.015645
Pd      6.91814      9.45451     12.22567        -0.025635     -0.044341     -0.017929
Pd     12.27133      6.74659      7.90796        -0.005544     -0.035457      0.064994
Pd      5.88540     10.49018      9.80503        -0.043705     -0.007423     -0.007410
Pd      7.52808      7.08698     13.29836         0.031985     -0.013959     -0.029727
Ir     11.54863      9.69895     13.09957        -0.034788     -0.081137     -0.023607
Ir     13.41678      9.16221     11.51394        -0.048311     -0.023446      0.004635
Ir      9.25265      8.84587     14.01036        -0.073145     -0.196181      0.030250
Ir     10.40211     10.78577     15.13701         0.032508      0.067882      0.034789
Ir      7.28831     12.01157     11.42096        -0.050591      0.005247      0.036690
Ir     14.59138     11.05421     10.38820        -0.025273      0.063178      0.000443
Ir     12.24928     10.53864      9.54103        -0.009499      0.024721     -0.012201
Ir      8.91697     11.07768     12.97728         0.013968      0.065639     -0.003780
Ir     10.09185      9.98146     11.00235         0.056047     -0.004728     -0.006308
Ir     13.50462     11.40327     12.71807         0.041512      0.097760     -0.068457
Ir     11.24160     12.23676     13.17195        -0.024822     -0.050250      0.031300
Ir      8.40681     11.20895      9.32335         0.017061     -0.022884     -0.012530
Ir     11.58217      8.02397     10.06954        -0.086841     -0.027730     -0.028081
Ir      7.17035     13.12801      8.59621        -0.040818      0.095798     -0.024113
Ir      9.51660      6.97322      9.25451        -0.046472      0.009493      0.008572
Ir      8.00997      8.81944     10.02057         0.013484      0.006449     -0.065786
Ir     10.71346     12.12922      8.51282         0.049612      0.018023     -0.004266
Ir      9.52236      7.67427     11.75239         0.006438     -0.038899     -0.030703
Ir     13.83230      8.64643      9.01170         0.039288     -0.065074      0.049230
