152
# total energy = -1061.43660395 eVH     10.35389      5.87395      7.64558        -0.141102      0.119252      0.997169
H     10.62451     15.10445      7.64558         0.360781     -0.093894      0.787292
H     10.62451      5.87395     13.33282        -0.119281      0.088419     -0.482942
H     10.35389     15.10445     13.33282         0.088278     -0.187508     -0.390620
H      7.64558     10.35389      5.87395         0.919178      0.153754      0.210164
H      7.64558     10.62451     15.10445         0.206794     -0.021133     -0.065085
H     13.33282     10.62451      5.87395        -0.643354     -0.007364      0.167514
H     13.33282     10.35389     15.10445        -0.324735     -0.069588     -0.062942
H      5.87395      7.64558     10.35389         0.138238      0.353537     -0.066573
H     15.10445      7.64558     10.62451        -0.135994      0.508084      0.209166
H      5.87395     13.33282     10.62451         0.120839     -0.591742      0.063914
H     15.10445     13.33282     10.35389        -0.233168     -0.426275      0.090367
H      5.87395     10.35389      7.64558         0.169531      0.226695      0.367195
H     15.10445     10.62451      7.64558        -0.145212     -0.339776      0.701982
H      5.87395     10.62451     13.33282         0.035845      0.119871     -0.704355
H     15.10445     10.35389     13.33282         0.093095     -0.273445     -0.741316
H     10.35389      7.64558      5.87395        -0.109969      0.433058      0.236189
H     10.62451      7.64558     15.10445         0.384674      0.628354     -0.110625
H     10.62451     13.33282      5.87395         0.157012     -0.584898      0.103756
H     10.35389     13.33282     15.10445         0.219476     -0.734744     -0.075655
H      7.64558      5.87395     10.35389         0.475134      0.153182     -0.137763
H      7.64558     15.10445     10.62451         0.418111     -0.161879      0.381874
H     13.33282      5.87395     10.62451        -0.377405      0.157826     -0.071247
H     13.33282     15.10445     10.35389        -0.562635     -0.279459      0.118381
H     12.45634     12.45634     19.01126         0.234499      0.264787     -0.245217
H     19.01126     19.01126     19.01126        -0.260762     -0.261315     -0.227869
H     19.01126     12.45634     12.45634        -0.232956      0.271990      0.240076
H     12.45634     19.01126     12.45634         0.278288     -0.211362      0.254122
C     10.35284      5.61067      6.59456         0.283433     -0.289690     -0.833071
C     10.62556     15.36773      6.59456        -0.208138      0.642791     -0.255256
C     10.62556      5.61067     14.38384         0.263006     -0.301142      0.509901
C     10.35284     15.36773     14.38384        -0.115407      0.266018      0.252620
C      6.59456     10.35284      5.61067        -0.890736     -0.121229     -0.221591
C      6.59456     10.62556     15.36773        -0.525780      0.048356      0.345753
C     14.38384     10.62556      5.61067         0.854321     -0.046183     -0.621300
C     14.38384     10.35284     15.36773         0.271427     -0.086956      0.370841
C      5.61067      6.59456     10.35284        -0.391084     -0.364772      0.064061
C     15.36773      6.59456     10.62556         0.286951     -0.588918     -0.100449
C      5.61067     14.38384     10.62556        -0.156431      0.537683     -0.323093
C     15.36773     14.38384     10.35284         0.406454      0.818977     -0.100868
C      5.61067     10.35284      6.59456        -0.281752     -0.137675     -0.119119
C     15.36773     10.62556      6.59456         0.229677      0.275672     -0.562458
C      5.61067     10.62556     14.38384        -0.343232     -0.027477      1.198053
C     15.36773     10.35284     14.38384         0.293837     -0.051510      1.006798
C     10.35284      6.59456      5.61067         0.077196     -0.282125     -0.477062
C     10.62556      6.59456     15.36773         0.001777     -0.810477      0.207801
C     10.62556     14.38384      5.61067        -0.391500      0.085597     -0.851493
C     10.35284     14.38384     15.36773        -0.249151      0.893819      0.244034
C      6.59456      5.61067     10.35284        -0.361961     -0.277446      0.241981
C      6.59456     15.36773     10.62556        -0.425679      0.558306     -0.004658
C     14.38384      5.61067     10.62556         0.451476     -0.337382      0.062049
C     14.38384     15.36773     10.35284         0.918005      0.264221     -0.055144
C     10.40319      3.19606      7.29314         0.005036      0.556967     -0.310811
C     10.35913      4.25547      6.23373        -0.005387     -0.506340      0.435488
C      0.08601      7.29314      7.29314        -0.012839     -0.897935     -0.536701
C      0.13007      6.23373      6.23373        -0.162578      0.869140      0.141013
C      0.08601      3.19606      3.19606        -0.012828      0.378168      0.380776
C      0.13007      4.25547      4.25547         0.057686     -0.186246     -0.618918
C     10.40319      7.29314      3.19606        -0.048324     -1.096154      0.751360
C     10.35913      6.23373      4.25547         0.011322      0.335510     -0.196116
C      7.29314     10.40319      3.19606        -1.192859     -0.079104      0.330483
C      6.23373     10.35913      4.25547         0.277067      0.028665     -0.668482
C      7.29314      0.08601      7.29314        -0.859465     -0.004070     -0.409908
C      6.23373      0.13007      6.23373         0.300680      0.049178      0.131949
C      3.19606      0.08601      3.19606         0.323770     -0.001610      0.420384
C      4.25547      0.13007      4.25547        -0.286175     -0.039893     -0.171992
C      3.19606     10.40319      7.29314         0.507026     -0.044663     -1.003656
C      4.25547     10.35913      6.23373        -0.298850     -0.062532      0.105036
C      3.19606      7.29314     10.40319         1.040515     -0.486234      0.003052
C      4.25547      6.23373     10.35913        -0.173935      0.167758      0.000092
C      7.29314      7.29314      0.08601        -0.451036     -0.279370     -0.007420
C      6.23373      6.23373      0.13007         0.213632      0.098923     -0.139559
C      3.19606      3.19606      0.08601         0.345347      0.792146     -0.008984
C      4.25547      4.25547      0.13007        -0.472148     -0.195116      0.048367
C      7.29314      3.19606     10.40319        -0.202161      0.521321      0.023875
C      6.23373      4.25547     10.35913         0.007054     -0.336225      0.038156
O     10.43466      3.58206      8.50569        -0.022862      0.134005      0.375690
O     10.54374     17.39634      8.50569         0.047935      0.065273      0.331510
O     10.54374      3.58206     12.47271         0.041780      0.200011     -0.572248
O     10.43466     17.39634     12.47271         0.025524      0.002239     -0.421991
O      8.50569     10.43466      3.58206         0.755905     -0.071258      0.040422
O      8.50569     10.54374     17.39634         0.866938      0.023251     -0.159749
O     12.47271     10.54374      3.58206        -0.348052      0.039477      0.074332
O     12.47271     10.43466     17.39634        -0.385893     -0.034110      0.037937
O      3.58206      8.50569     10.43466        -0.085862      0.310930     -0.077053
O     17.39634      8.50569     10.54374        -0.110896      0.443355      0.039160
O      3.58206     12.47271     10.54374         0.138882     -0.777769     -0.012280
O     17.39634     12.47271     10.43466        -0.243866     -0.645209     -0.013894
O      3.58206     10.43466      8.50569         0.123408     -0.039407      0.781734
O     17.39634     10.54374      8.50569         0.014753      0.039689      0.318879
O      3.58206     10.54374     12.47271         0.069360      0.017883     -0.461179
O     17.39634     10.43466     12.47271         0.021523      0.015762     -0.268660
O     10.43466      8.50569      3.58206        -0.065346      0.609500     -0.055293
O     10.54374      8.50569     17.39634         0.022028      0.901452     -0.213161
O     10.54374     12.47271      3.58206         0.063475     -0.369702      0.086315
O     10.43466     12.47271     17.39634        -0.056859     -0.638275     -0.194921
O      8.50569      3.58206     10.43466         0.342580      0.075898     -0.051728
O      8.50569     17.39634     10.54374         0.529870     -0.147183     -0.001435
O     12.47271      3.58206     10.54374        -0.380279      0.066989      0.033539
O     12.47271     17.39634     10.43466        -0.803045     -0.125159      0.056546
O     11.90042     11.90042     19.56718        -0.248432     -0.282640      0.236288
O     19.56718     19.56718     19.56718         0.296161      0.296990      0.247334
O     19.56718     11.90042     11.90042         0.231273     -0.302420     -0.280461
O     11.90042     19.56718     11.90042        -0.275252      0.180849     -0.267452
O      9.45224      1.03696      9.45224        -0.116053      0.099522     -0.081327
O      1.03696      9.45224      9.45224         0.139371     -0.141659     -0.169407
O      1.03696      1.03696      1.03696         0.131697      0.198666      0.002948
O      9.45224      9.45224      1.03696        -0.209238     -0.158233      0.046830
Zr     10.48920      2.52580     10.48920         0.008761     -0.234955      0.153334
Zr     10.48920     18.45260     10.48920        -0.302257      0.284818     -0.172553
Zr     10.48920     10.48920      2.52580         0.318382      0.422217     -0.222385
Zr     10.48920     10.48920     18.45260         0.014704      0.013451      0.483546
Zr      2.52580     10.48920     10.48920        -0.551200      0.053372      0.323635
Zr     18.45260     10.48920     10.48920         0.273352     -0.157605      0.011856
Pd      9.13688     14.56276      9.20967        -0.011662      0.016708      0.012519
Pd      8.42801     13.23286     13.81320         0.009502      0.006320      0.030284
Pd     12.12286     14.12615      8.65462        -0.020116     -0.011695      0.022924
Pd     12.27351     12.75546     10.89626         0.008658      0.001102      0.041736
Pd     11.81739      7.08548     11.97584         0.001167     -0.000869     -0.008316
Pd     11.11372     15.31711     10.87278         0.024147     -0.008918      0.037908
Pd      9.64021     13.14140     11.44299        -0.007136     -0.003964     -0.069874
Pd     14.03180     12.40195      8.04924         0.007518     -0.001991     -0.050357
Pd     11.60385     11.76069      6.78163         0.043408     -0.028698      0.007679
Pd      7.53491      8.53187      7.19924        -0.032760      0.025476     -0.007508
Pd      8.66853     11.99056      6.92333        -0.033859      0.057394     -0.019482
Pd      9.81338      9.85510      8.03833        -0.019186     -0.003948      0.007765
Pd      8.48772     14.64019      6.55955         0.011963      0.010889     -0.001886
Pd     12.12427      9.06446      6.87427        -0.039151     -0.009501      0.011227
Pd      9.96484      9.98118      5.42729         0.004416      0.007511     -0.026784
Pd      6.93830      9.19598     12.18398        -0.037697      0.043787      0.011879
Pd     12.44261      6.53719      7.71172        -0.011571      0.007494     -0.004232
Pd      5.59603     10.62891     10.11765        -0.005474      0.007666     -0.021635
Pd      7.62153      6.64542     12.73205        -0.031387     -0.005296      0.013146
Ir     11.30103      9.55870     12.88899         0.040339     -0.027581     -0.019448
Ir     13.10371      9.23518     11.15063         0.000100     -0.063836     -0.001381
Ir      9.16409      8.43665     13.78196        -0.013172     -0.037078      0.052531
Ir     10.28374     10.37509     15.11391        -0.032444      0.018584      0.023151
Ir      7.10555     11.88851     11.85516        -0.011317     -0.011415      0.045150
Ir     14.45453     11.16065     10.37104         0.047822      0.032308     -0.010109
Ir     12.30851     10.60812      9.12353        -0.043489      0.027667     -0.135007
Ir      8.93731     10.80610     12.92936        -0.004427      0.049582      0.026170
Ir     10.04745     10.28921     10.66514        -0.012199     -0.015237     -0.033634
Ir     13.31318     11.23121     12.64694        -0.025365      0.037009      0.010965
Ir     11.11185     12.04684     13.39212         0.029214      0.025651     -0.050102
Ir      7.96631     11.71851      9.54448         0.037939      0.001770     -0.094344
Ir     11.33919      8.12906      9.51057        -0.026569      0.021313     -0.014055
Ir      6.94112     13.47105      8.28463         0.022357     -0.002084      0.026602
Ir      9.12342      7.27168      8.83140        -0.024477      0.016954      0.003680
Ir      7.79341      9.20083      9.72522        -0.031674     -0.002516     -0.053829
Ir     10.37813     12.30791      9.00232        -0.021898      0.008480      0.037412
Ir      9.36277      7.89222     11.28661         0.017299     -0.013817     -0.051013
Ir     13.79389      8.48067      8.85062        -0.001551     -0.030407      0.002844
