152
# total energy = -1024.40655642 eVH     10.35389      5.87395      7.64558         0.479161      0.028956      0.734234
H     10.62451     15.10445      7.64558         0.052717     -0.198346      0.623290
H     10.62451      5.87395     13.33282         0.090660      0.160138     -0.562994
H     10.35389     15.10445     13.33282        -0.466849     -0.038221     -0.747519
H      7.64558     10.35389      5.87395         0.340655      0.022128      0.161418
H      7.64558     10.62451     15.10445         0.903140     -0.257903      0.030093
H     13.33282     10.62451      5.87395        -0.759887     -0.088764      0.151243
H     13.33282     10.35389     15.10445        -0.881701     -0.401800      0.195824
H      5.87395      7.64558     10.35389         0.168462      0.745384     -0.318007
H     15.10445      7.64558     10.62451        -0.138615      0.386879     -0.022764
H      5.87395     13.33282     10.62451         0.159230     -0.518703     -0.109043
H     15.10445     13.33282     10.35389        -0.092461     -1.192654      0.076843
H      5.87395     10.35389      7.64558         0.142016      0.161322      0.516803
H     15.10445     10.62451      7.64558         0.006140      0.095549      1.047297
H      5.87395     10.62451     13.33282         0.083108     -0.043331     -0.454281
H     15.10445     10.35389     13.33282        -0.160282     -0.169488     -0.469553
H     10.35389      7.64558      5.87395         0.086509      1.021053      0.233582
H     10.62451      7.64558     15.10445         0.001633      0.270600     -0.165470
H     10.62451     13.33282      5.87395        -0.101511     -0.391528      0.320248
H     10.35389     13.33282     15.10445        -0.440774     -0.593793     -0.006345
H      7.64558      5.87395     10.35389         0.510900      0.096574     -0.084954
H      7.64558     15.10445     10.62451         0.929863     -0.227448     -0.165838
H     13.33282      5.87395     10.62451        -0.593434      0.101628     -0.070508
H     13.33282     15.10445     10.35389        -0.593881     -0.057850      0.245591
H     12.45634     12.45634     19.01126         0.234772      0.279257     -0.237020
H     19.01126     19.01126     19.01126        -0.250009     -0.248931     -0.242059
H     19.01126     12.45634     12.45634        -0.266225      0.265168      0.220211
H     12.45634     19.01126     12.45634         0.237747     -0.266531      0.238936
C     10.35284      5.61067      6.59456        -0.204512     -0.692999      0.099382
C     10.62556     15.36773      6.59456        -0.046477      0.386119     -0.846470
C     10.62556      5.61067     14.38384        -0.005247     -0.054096      0.681736
C     10.35284     15.36773     14.38384         0.190543      0.693795      0.163693
C      6.59456     10.35284      5.61067        -0.340460     -0.018243     -0.298259
C      6.59456     10.62556     15.36773        -1.075708      0.264743      0.298216
C     14.38384     10.62556      5.61067         0.407218      0.365577     -0.684576
C     14.38384     10.35284     15.36773         1.025980      0.014158      0.259234
C      5.61067      6.59456     10.35284        -0.395256     -0.390759      0.371034
C     15.36773      6.59456     10.62556         0.190185     -0.498923      0.015932
C      5.61067     14.38384     10.62556        -0.200202      0.578873      0.005529
C     15.36773     14.38384     10.35284         0.341801      0.041257     -0.128048
C      5.61067     10.35284      6.59456        -0.325015     -0.081386     -1.023662
C     15.36773     10.62556      6.59456         0.885920     -0.339907     -0.983344
C      5.61067     10.62556     14.38384        -0.425125      0.029388      0.307654
C     15.36773     10.35284     14.38384         0.650959     -0.095281      1.083305
C     10.35284      6.59456      5.61067        -0.225975     -0.580231     -0.937366
C     10.62556      6.59456     15.36773         0.057513     -0.268427      0.044051
C     10.62556     14.38384      5.61067         0.075370      1.200685     -0.423217
C     10.35284     14.38384     15.36773         0.269393      0.153489      0.696350
C      6.59456      5.61067     10.35284        -0.201073     -0.742656      0.128539
C      6.59456     15.36773     10.62556        -1.217647      0.249766      0.158269
C     14.38384      5.61067     10.62556         1.038577     -0.296169      0.035983
C     14.38384     15.36773     10.35284        -0.484565      0.813775     -0.400441
C     10.40319      3.19606      7.29314        -0.031039      0.863089     -0.409374
C     10.35913      4.25547      6.23373         0.053838     -0.500047      0.550407
C      0.08601      7.29314      7.29314        -0.022459     -0.424871     -0.349490
C      0.13007      6.23373      6.23373        -0.023258      0.015948      0.102634
C      0.08601      3.19606      3.19606         0.008503      1.267480      0.190855
C      0.13007      4.25547      4.25547        -0.045991     -0.215915     -0.202798
C     10.40319      7.29314      3.19606        -0.014440     -1.053827      0.367758
C     10.35913      6.23373      4.25547         0.033604      0.466782     -0.673269
C      7.29314     10.40319      3.19606        -0.313672      0.033899      0.720513
C      6.23373     10.35913      4.25547         0.156519      0.074157     -0.105015
C      7.29314      0.08601      7.29314        -0.643860     -0.022993     -0.273869
C      6.23373      0.13007      6.23373         0.379334     -0.079098      0.517887
C      3.19606      0.08601      3.19606         1.002943     -0.006408      0.252169
C      4.25547      0.13007      4.25547        -0.149147     -0.040120     -0.519689
C      3.19606     10.40319      7.29314         0.374394     -0.013002     -0.967158
C      4.25547     10.35913      6.23373        -0.276151      0.093870      0.248082
C      3.19606      7.29314     10.40319         0.510752     -1.314922     -0.040058
C      4.25547      6.23373     10.35913        -0.531193      0.755188      0.109996
C      7.29314      7.29314      0.08601        -0.394712     -0.222915     -0.001154
C      6.23373      6.23373      0.13007         0.157471      0.144124     -0.003682
C      3.19606      3.19606      0.08601         0.254788      0.256254     -0.017108
C      4.25547      4.25547      0.13007        -0.119891     -0.055356      0.008676
C      7.29314      3.19606     10.40319        -0.389313      0.650739      0.008119
C      6.23373      4.25547     10.35913         1.104639     -0.082619      0.054566
O     10.43466      3.58206      8.50569        -0.025648      0.048303      0.447609
O     10.54374     17.39634      8.50569        -0.006605     -0.107693      0.457653
O     10.54374      3.58206     12.47271         0.040050     -0.106072     -0.131905
O     10.43466     17.39634     12.47271        -0.058596     -0.044758     -0.470886
O      8.50569     10.43466      3.58206         0.293666     -0.032345     -0.032406
O      8.50569     10.54374     17.39634         0.715818      0.025349     -0.195750
O     12.47271     10.54374      3.58206        -0.790262     -0.039086      0.151549
O     12.47271     10.43466     17.39634        -0.289154     -0.027436      0.031635
O      3.58206      8.50569     10.43466         0.156979      1.084548     -0.036826
O     17.39634      8.50569     10.54374        -0.096106      0.427578      0.058151
O      3.58206     12.47271     10.54374         0.068011     -0.400895      0.036996
O     17.39634     12.47271     10.43466        -0.160048     -0.684734     -0.007786
O      3.58206     10.43466      8.50569         0.063467     -0.068497      0.802196
O     17.39634     10.54374      8.50569        -0.062335      0.047251      0.335656
O      3.58206     10.54374     12.47271        -0.013626      0.037790     -0.239871
O     17.39634     10.43466     12.47271        -0.250972      0.003919     -0.710023
O     10.43466      8.50569      3.58206         0.118191      0.832748      0.193427
O     10.54374      8.50569     17.39634         0.032708      0.622501     -0.148928
O     10.54374     12.47271      3.58206         0.005717     -1.012310      0.180072
O     10.43466     12.47271     17.39634        -0.037038     -0.914815     -0.205044
O      8.50569      3.58206     10.43466         0.557056      0.121077     -0.016112
O      8.50569     17.39634     10.54374         0.516313     -0.198872     -0.010058
O     12.47271      3.58206     10.54374        -0.473337      0.158761      0.057699
O     12.47271     17.39634     10.43466        -0.414529      0.023191     -0.005037
O     11.90042     11.90042     19.56718        -0.265252     -0.329372      0.254760
O     19.56718     19.56718     19.56718         0.280337      0.292129      0.282533
O     19.56718     11.90042     11.90042         0.300259     -0.301372     -0.203490
O     11.90042     19.56718     11.90042        -0.267632      0.285525     -0.248253
O      9.45224      1.03696      9.45224        -0.079421      0.045302     -0.060937
O      1.03696      9.45224      9.45224         0.041002     -0.152753     -0.119851
O      1.03696      1.03696      1.03696         0.022556      0.118111      0.198477
O      9.45224      9.45224      1.03696        -0.067402     -0.086648      0.118913
Zr     10.48920      2.52580     10.48920        -0.047919     -0.116913     -0.167539
Zr     10.48920     18.45260     10.48920         0.012760      0.214522     -0.022859
Zr     10.48920     10.48920      2.52580        -0.160688     -0.186144     -0.518187
Zr     10.48920     10.48920     18.45260        -0.015009      0.001970      0.444518
Zr      2.52580     10.48920     10.48920        -0.359372      0.291862      0.195378
Zr     18.45260     10.48920     10.48920         0.202183      0.052063     -0.203246
Pd      8.35335      9.72330     13.23114        -0.009881      0.004280      0.018029
Pd     10.50518      9.46226     10.19251         0.017301     -0.011418     -0.037123
Pd     13.08613      8.75689     12.46503        -0.013870      0.034251      0.017248
Pd     10.31339     10.76269     15.04725         0.009467     -0.009405      0.035279
Pd     12.84563     11.35265     13.53404         0.013970     -0.044633      0.055674
Pd     14.85578     10.65564     11.35956         0.003593     -0.061209     -0.001829
Pd      6.86133      7.58199     12.29307         0.020852     -0.017426      0.019374
Pd      9.22209      7.20315      9.47325        -0.009541      0.005741     -0.020836
Pd      9.55469      7.55318     12.20072         0.034879     -0.035588      0.002883
Pd     11.75551      7.10697     10.81856        -0.028554     -0.021275      0.008535
Pd     11.63422      7.83043      8.26801        -0.021214     -0.002281      0.010638
Pd      7.15565     11.68893     11.54357         0.014644     -0.005392     -0.047145
Pd      9.29600     14.31941      9.28001        -0.020833      0.010996     -0.009394
Pd      8.15657     12.32013     14.04443        -0.020812     -0.013235     -0.016322
Pd     14.24117     14.20884      8.34167        -0.004038     -0.034090      0.010272
Pd     11.75348     13.31344      8.79739        -0.024568      0.009618      0.041260
Pd     14.12946     11.62590      8.99206        -0.001244      0.012903     -0.017375
Pd      8.71671     13.98048     12.02288         0.015615     -0.015809      0.012182
Pd     12.22118     13.97390     13.94797        -0.018021      0.038247      0.036278
Pd     11.41331     14.12823     11.30752        -0.015385      0.012008     -0.021235
Pd     14.01242     13.31036     12.09480         0.018844      0.017277     -0.026325
Pd     12.27284     11.52632     10.87879        -0.007478      0.006177      0.023144
Pd     13.00542     12.63328      6.59124         0.026727     -0.048292     -0.022903
Pd     13.96650      8.83777      7.57649         0.007042      0.005425     -0.010563
Pd      6.98470      8.45807      8.39091        -0.045774      0.026916     -0.000499
Pd      5.55037     10.04308     10.03534         0.017972     -0.012598      0.053632
Pd      9.41022      9.46357      7.48019        -0.017757      0.019215     -0.023844
Pd      8.48439      6.97921      6.87213         0.010903     -0.010240      0.002659
Pd      9.65397     11.94281     10.54014         0.001190      0.014517      0.028753
Pd     11.82112     10.61923      8.04914        -0.005576     -0.025725      0.028650
Pd     11.78774      8.93091      5.85429        -0.000080      0.000844      0.018134
Pd     10.62305     11.33899      5.74641        -0.023563      0.000598     -0.019635
Ir     10.81807      9.79989     12.69203        -0.005183      0.006394      0.034240
Ir     13.16563      9.26008      9.95385        -0.008607      0.004858     -0.010189
Ir     10.50412     12.25604     12.89862        -0.049083      0.063776     -0.019097
Ir      7.75527     11.01355      9.04974        -0.003313      0.001899     -0.012850
Ir      9.61018     12.06731      7.97952        -0.059643     -0.039023     -0.036265
Ir      8.01909      9.21970     10.71173        -0.034046     -0.073417      0.072560
