152
# total energy = -1059.95958068 eVH     10.35389      5.87395      7.64558        -0.250999     -0.014540      1.149393
H     10.62451     15.10445      7.64558         0.016422     -0.096054      0.920407
H     10.62451      5.87395     13.33282        -0.226315      0.093428     -0.790620
H     10.35389     15.10445     13.33282         0.087557     -0.292984     -0.903963
H      7.64558     10.35389      5.87395         0.921741     -0.094087      0.185912
H      7.64558     10.62451     15.10445         0.343693     -0.049985     -0.079394
H     13.33282     10.62451      5.87395        -0.865033      0.198120      0.201376
H     13.33282     10.35389     15.10445        -0.277346     -0.010254     -0.069264
H      5.87395      7.64558     10.35389         0.088205      0.410981     -0.026760
H     15.10445      7.64558     10.62451         0.028570      0.530648     -0.043101
H      5.87395     13.33282     10.62451        -0.015542     -0.965766      0.078631
H     15.10445     13.33282     10.35389        -0.071072     -0.319533      0.002143
H      5.87395     10.35389      7.64558         0.266512      0.119112      0.422772
H     15.10445     10.62451      7.64558        -0.129707     -0.176859      0.644455
H      5.87395     10.62451     13.33282        -0.102233      0.472086     -0.606944
H     15.10445     10.35389     13.33282         0.278258     -0.673945     -0.799808
H     10.35389      7.64558      5.87395        -0.046802      0.487415      0.333998
H     10.62451      7.64558     15.10445         0.207165      0.753800     -0.054079
H     10.62451     13.33282      5.87395         0.113827     -0.548444      0.202680
H     10.35389     13.33282     15.10445         0.051756     -0.287727     -0.129463
H      7.64558      5.87395     10.35389         0.338765      0.087204     -0.001685
H      7.64558     15.10445     10.62451         0.365975     -0.109370      0.153324
H     13.33282      5.87395     10.62451        -0.316093      0.123530     -0.037611
H     13.33282     15.10445     10.35389        -0.652694     -0.134364      0.141981
H     12.45634     12.45634     19.01126         0.254111      0.270502     -0.230421
H     19.01126     19.01126     19.01126        -0.245375     -0.269358     -0.244900
H     19.01126     12.45634     12.45634        -0.252396      0.268536      0.235370
H     12.45634     19.01126     12.45634         0.289802     -0.236001      0.234028
C     10.35284      5.61067      6.59456         0.397291     -0.436215     -1.471598
C     10.62556     15.36773      6.59456        -0.166010      0.551432     -0.619732
C     10.62556      5.61067     14.38384         0.393660     -0.354160      0.856636
C     10.35284     15.36773     14.38384        -0.234340      0.215061      1.117468
C      6.59456     10.35284      5.61067        -1.365179      0.017669     -0.256946
C      6.59456     10.62556     15.36773        -0.660973      0.058339      0.385847
C     14.38384     10.62556      5.61067         1.286708     -0.164309     -0.609245
C     14.38384     10.35284     15.36773         0.393515     -0.118191      0.353574
C      5.61067      6.59456     10.35284        -0.305906     -0.593435     -0.000433
C     15.36773      6.59456     10.62556         0.414450     -1.045285      0.027461
C      5.61067     14.38384     10.62556        -0.110462      1.157401     -0.182357
C     15.36773     14.38384     10.35284         0.455992      0.640138     -0.026566
C      5.61067     10.35284      6.59456        -0.354879     -0.105155     -0.708025
C     15.36773     10.62556      6.59456         0.424746      0.121098     -0.782170
C      5.61067     10.62556     14.38384        -0.384693     -0.180818      1.235718
C     15.36773     10.35284     14.38384         0.290781      0.198260      1.556661
C     10.35284      6.59456      5.61067        -0.050325     -0.722044     -0.660431
C     10.62556      6.59456     15.36773        -0.095202     -0.819473      0.341968
C     10.62556     14.38384      5.61067        -0.441771      0.431722     -0.688290
C     10.35284     14.38384     15.36773        -0.152347      0.586835      0.403654
C      6.59456      5.61067     10.35284        -0.480086     -0.340464      0.061314
C      6.59456     15.36773     10.62556        -0.420969      0.481477      0.044651
C     14.38384      5.61067     10.62556         0.447125     -0.399095      0.007697
C     14.38384     15.36773     10.35284         1.125021      0.519317     -0.070544
C     10.40319      3.19606      7.29314         0.004025      0.611993     -0.337857
C     10.35913      4.25547      6.23373        -0.005516     -0.457527      0.298529
C      0.08601      7.29314      7.29314        -0.014108     -0.348506     -0.489533
C      0.13007      6.23373      6.23373        -0.087943      0.808729      0.068019
C      0.08601      3.19606      3.19606        -0.001211      0.658157      0.272287
C      0.13007      4.25547      4.25547         0.018439     -0.275371     -0.497393
C     10.40319      7.29314      3.19606        -0.067936     -1.148497      0.534232
C     10.35913      6.23373      4.25547        -0.038841      0.384602     -0.186643
C      7.29314     10.40319      3.19606        -1.070069     -0.057261      0.180114
C      6.23373     10.35913      4.25547         0.358810      0.078559     -0.531618
C      7.29314      0.08601      7.29314        -0.395776      0.035554     -0.599441
C      6.23373      0.13007      6.23373         0.178042      0.135551      0.136706
C      3.19606      0.08601      3.19606         0.688341      0.024168      0.167728
C      4.25547      0.13007      4.25547        -0.166992     -0.050212     -0.365758
C      3.19606     10.40319      7.29314         0.384233     -0.023456     -0.857721
C      4.25547     10.35913      6.23373        -0.170857     -0.089082      0.094692
C      3.19606      7.29314     10.40319         0.594491     -0.379136     -0.000652
C      4.25547      6.23373     10.35913        -0.130752      0.176638      0.000767
C      7.29314      7.29314      0.08601        -0.398336     -0.339938     -0.015348
C      6.23373      6.23373      0.13007         0.215654      0.202813     -0.048702
C      3.19606      3.19606      0.08601         0.291642      0.482790     -0.022658
C      4.25547      4.25547      0.13007        -0.393936     -0.219401     -0.028343
C      7.29314      3.19606     10.40319        -0.283362      0.584654     -0.015788
C      6.23373      4.25547     10.35913        -0.001155     -0.143793      0.024617
O     10.43466      3.58206      8.50569        -0.031960      0.110899      0.339378
O     10.54374     17.39634      8.50569         0.071196     -0.138055      0.589715
O     10.54374      3.58206     12.47271         0.026049      0.109817     -0.389257
O     10.43466     17.39634     12.47271         0.088607     -0.046361     -0.352642
O      8.50569     10.43466      3.58206         0.716885     -0.061853      0.022614
O      8.50569     10.54374     17.39634         0.429397      0.049929     -0.063168
O     12.47271     10.54374      3.58206        -0.651546      0.109009      0.202410
O     12.47271     10.43466     17.39634        -0.296377     -0.003818      0.005968
O      3.58206      8.50569     10.43466         0.050077      0.460969     -0.062494
O     17.39634      8.50569     10.54374        -0.061741      0.469794      0.053083
O      3.58206     12.47271     10.54374         0.110958     -0.586205      0.004256
O     17.39634     12.47271     10.43466        -0.163279     -0.729571     -0.064724
O      3.58206     10.43466      8.50569         0.220351     -0.064964      0.778338
O     17.39634     10.54374      8.50569        -0.132576      0.079919      0.631270
O      3.58206     10.54374     12.47271         0.003169     -0.001174     -0.273982
O     17.39634     10.43466     12.47271         0.044382     -0.014282     -0.205810
O     10.43466      8.50569      3.58206        -0.109897      0.587659     -0.105589
O     10.54374      8.50569     17.39634         0.058982      0.502106     -0.109168
O     10.54374     12.47271      3.58206         0.103689     -0.621823      0.134973
O     10.43466     12.47271     17.39634        -0.062708     -0.615197     -0.226824
O      8.50569      3.58206     10.43466         0.401180      0.032299     -0.029555
O      8.50569     17.39634     10.54374         0.627474     -0.149507      0.051293
O     12.47271      3.58206     10.54374        -0.510136      0.124912      0.037523
O     12.47271     17.39634     10.43466        -0.620322     -0.145319      0.031389
O     11.90042     11.90042     19.56718        -0.275951     -0.310447      0.238841
O     19.56718     19.56718     19.56718         0.300480      0.319892      0.297704
O     19.56718     11.90042     11.90042         0.286021     -0.325200     -0.230934
O     11.90042     19.56718     11.90042        -0.318922      0.231033     -0.202639
O      9.45224      1.03696      9.45224        -0.083883      0.077660     -0.069879
O      1.03696      9.45224      9.45224         0.093196     -0.115087     -0.046231
O      1.03696      1.03696      1.03696         0.078072      0.052164      0.102948
O      9.45224      9.45224      1.03696        -0.057065     -0.128838      0.130864
Zr     10.48920      2.52580     10.48920         0.035784     -0.080697      0.056954
Zr     10.48920     18.45260     10.48920        -0.169924      0.263436     -0.336416
Zr     10.48920     10.48920      2.52580         0.123174      0.353517     -0.357521
Zr     10.48920     10.48920     18.45260        -0.074843     -0.179952      0.172828
Zr      2.52580     10.48920     10.48920        -0.246197      0.125009      0.214710
Zr     18.45260     10.48920     10.48920         0.232064     -0.107609      0.024722
Pd      9.37307     14.18703      9.42950         0.014863      0.037815     -0.026482
Pd      8.63976     13.70688     12.99693         0.001846      0.003208     -0.021058
Pd     11.99580     14.41849      8.77329         0.016373      0.004963     -0.025942
Pd     12.80308     12.78504     10.59092        -0.015717      0.040475      0.009275
Pd     12.19097      7.10024     12.62002        -0.034684      0.008124     -0.000506
Pd     11.27249     14.77040     11.56960        -0.043556      0.033792     -0.041212
Pd     10.14365     12.43241     11.19191        -0.023352      0.031562     -0.044521
Pd     13.46620     12.12954      7.96620         0.014102      0.014293      0.000715
Pd     11.46022     11.54410      6.12915         0.010702      0.009608     -0.016785
Pd      7.82943      8.60250      7.57599         0.015476     -0.023916     -0.028739
Pd      8.75424     11.72785      6.91742        -0.016742     -0.004152     -0.007956
Pd     10.31284      9.45030      8.14264         0.002546      0.007778      0.006762
Pd      8.50195     14.42129      6.91348         0.021735      0.004737     -0.028320
Pd     12.36266      9.02470      6.57302         0.004214      0.007638      0.015731
Pd      9.73264      9.59315      5.56044         0.002975      0.004738      0.007969
Pd      6.88524      9.47438     12.19140        -0.018495     -0.010208     -0.010197
Pd     12.21613      6.65720      7.83157        -0.000719      0.017218      0.025387
Pd      5.96782     10.51382      9.74844         0.005360     -0.037884     -0.025929
Pd      7.55059      7.07545     13.09206         0.033480      0.042217      0.127101
Ir     11.86516      9.69086     13.05981        -0.053395      0.009559     -0.001808
Ir     13.60919      8.96409     11.41834        -0.015772      0.008283      0.015717
Ir      9.43561      8.78911     13.76665         0.005017      0.038119      0.051602
Ir     10.59206     10.93023     14.81928        -0.023431     -0.011119      0.021734
Ir      7.33292     12.06104     11.38489        -0.032931     -0.016300     -0.018689
Ir     14.72270     10.79424     10.03126        -0.003086      0.016018      0.022833
Ir     12.21573     10.43737      9.65028         0.003443      0.013871      0.018931
Ir      8.77749     11.04274     13.05611         0.005546     -0.011030     -0.015515
Ir     10.17866      9.81129     11.26907        -0.020948     -0.003520     -0.008246
Ir     13.84291     11.34208     12.34793        -0.053788      0.005735      0.023370
Ir     11.77461     12.30219     13.12374        -0.073025     -0.003759     -0.011723
Ir      8.55416     11.04672      9.42495        -0.027426      0.040556     -0.019869
Ir     11.60946      7.94492     10.03822        -0.018506      0.028053      0.026027
Ir      7.20779     12.94177      8.69189         0.028204      0.031293      0.010482
Ir      9.50698      6.99394      9.05762         0.008513      0.010113      0.012383
Ir      8.09949      8.72200     10.13409        -0.021686      0.014449     -0.012775
Ir     10.77248     12.07082      8.57443        -0.005862      0.028864     -0.038700
Ir      9.63126      7.34752     11.61164        -0.029911      0.054601      0.006626
Ir     13.70771      8.64955      8.77025        -0.009004      0.031919      0.022378
