152
# total energy = -1005.67417105 eVH     10.35389      5.87395      7.64558         0.159255      0.100417      0.564582
H     10.62451     15.10445      7.64558        -0.114647     -0.148724      0.497203
H     10.62451      5.87395     13.33282         0.583454      0.093833     -0.768468
H     10.35389     15.10445     13.33282         0.032590     -0.162091     -0.421913
H      7.64558     10.35389      5.87395         0.353708      0.035646      0.166513
H      7.64558     10.62451     15.10445         0.843825      0.502232     -0.018876
H     13.33282     10.62451      5.87395        -0.445222      0.345863      0.115681
H     13.33282     10.35389     15.10445        -0.848909     -0.072023      0.013805
H      5.87395      7.64558     10.35389         0.305548      1.173927      0.040922
H     15.10445      7.64558     10.62451        -0.106150      0.483285      0.289313
H      5.87395     13.33282     10.62451         0.188327     -0.639739     -0.004106
H     15.10445     13.33282     10.35389        -0.072404     -0.957820     -0.210282
H      5.87395     10.35389      7.64558         0.210650      0.043875      0.447339
H     15.10445     10.62451      7.64558        -0.139349      0.498799      0.780425
H      5.87395     10.62451     13.33282         0.104652      0.372220     -0.905109
H     15.10445     10.35389     13.33282        -0.073463     -0.035634     -0.658163
H     10.35389      7.64558      5.87395         0.335435      1.142423      0.055426
H     10.62451      7.64558     15.10445         0.711746      0.661917     -0.195503
H     10.62451     13.33282      5.87395        -0.399333     -0.801650      0.262390
H     10.35389     13.33282     15.10445        -0.091416     -0.467819     -0.282272
H      7.64558      5.87395     10.35389         0.892088      0.052485     -0.230670
H      7.64558     15.10445     10.62451         0.812117     -0.182083      0.018144
H     13.33282      5.87395     10.62451        -0.738609      0.177062      0.529025
H     13.33282     15.10445     10.35389        -0.380758     -0.117102     -0.098696
H     12.45634     12.45634     19.01126         0.244866      0.270504     -0.234321
H     19.01126     19.01126     19.01126        -0.271016     -0.247659     -0.245198
H     19.01126     12.45634     12.45634        -0.275371      0.263830      0.221794
H     12.45634     19.01126     12.45634         0.235668     -0.263143      0.272326
C     10.35284      5.61067      6.59456        -0.325413     -0.715121     -0.068538
C     10.62556     15.36773      6.59456         0.075066      0.358668     -0.255297
C     10.62556      5.61067     14.38384        -0.155299     -0.504903      0.072355
C     10.35284     15.36773     14.38384         0.013232      0.205056      0.382571
C      6.59456     10.35284      5.61067        -0.383351      0.011112     -0.254522
C      6.59456     10.62556     15.36773        -0.536541      0.023619      0.628653
C     14.38384     10.62556      5.61067        -0.243825     -0.466744     -0.654410
C     14.38384     10.35284     15.36773         1.033146     -0.086715      0.180281
C      5.61067      6.59456     10.35284        -0.696288     -0.198354     -0.356945
C     15.36773      6.59456     10.62556         0.547350      0.006941     -0.315766
C      5.61067     14.38384     10.62556        -0.266509      0.769247     -0.000242
C     15.36773     14.38384     10.35284         0.295994      0.964470      0.036086
C      5.61067     10.35284      6.59456        -0.285659     -0.008092     -0.744058
C     15.36773     10.62556      6.59456         0.482992     -0.273122      0.181845
C      5.61067     10.62556     14.38384        -0.626831     -0.106235      0.257526
C     15.36773     10.35284     14.38384         0.426577     -0.039089      1.019105
C     10.35284      6.59456      5.61067        -0.167830     -0.726789     -0.564832
C     10.62556      6.59456     15.36773        -0.108171     -0.311291      0.594555
C     10.62556     14.38384      5.61067         0.204757      1.110776     -0.367990
C     10.35284     14.38384     15.36773        -0.003323      0.806882      0.388103
C      6.59456      5.61067     10.35284         0.019579     -1.059799      0.206189
C      6.59456     15.36773     10.62556        -0.980918      0.230187      0.084871
C     14.38384      5.61067     10.62556         0.331808     -0.543852     -0.369711
C     14.38384     15.36773     10.35284         0.148132      0.402931     -0.075272
C     10.40319      3.19606      7.29314         0.007182      0.829185     -0.464679
C     10.35913      4.25547      6.23373         0.069603     -0.557890      0.092765
C      0.08601      7.29314      7.29314        -0.046055     -0.702064     -0.256755
C      0.13007      6.23373      6.23373        -0.038999      0.159807      0.510065
C      0.08601      3.19606      3.19606         0.014347      1.405701      0.272323
C      0.13007      4.25547      4.25547         0.029968     -0.685666     -0.215899
C     10.40319      7.29314      3.19606         0.005390     -0.329782      0.273409
C     10.35913      6.23373      4.25547         0.027761      0.030911     -0.729768
C      7.29314     10.40319      3.19606        -0.251311      0.017939      0.551669
C      6.23373     10.35913      4.25547         0.146968      0.046779     -0.063270
C      7.29314      0.08601      7.29314        -0.735822     -0.075209     -0.317313
C      6.23373      0.13007      6.23373         0.773289     -0.145536      0.434862
C      3.19606      0.08601      3.19606         0.953513     -0.021202      0.585423
C      4.25547      0.13007      4.25547        -0.557326     -0.073713     -0.604134
C      3.19606     10.40319      7.29314         0.525584     -0.009395     -0.761162
C      4.25547     10.35913      6.23373        -0.274090      0.068861      0.213667
C      3.19606      7.29314     10.40319         0.284922     -1.281404      0.030534
C      4.25547      6.23373     10.35913        -1.026551      0.023674      0.113445
C      7.29314      7.29314      0.08601        -0.430755     -0.413911     -0.016237
C      6.23373      6.23373      0.13007         0.513946      0.237292      0.008394
C      3.19606      3.19606      0.08601         0.456073      0.371021     -0.036106
C      4.25547      4.25547      0.13007        -0.134725     -0.600433     -0.041955
C      7.29314      3.19606     10.40319        -0.368629      0.429411      0.056784
C      6.23373      4.25547     10.35913         0.263617     -0.730608      0.136971
O     10.43466      3.58206      8.50569        -0.012831      0.063250      0.460710
O     10.54374     17.39634      8.50569         0.058598     -0.106547      0.392823
O     10.54374      3.58206     12.47271         0.029143     -0.119944     -0.153838
O     10.43466     17.39634     12.47271        -0.030120     -0.171571     -0.519380
O      8.50569     10.43466      3.58206         0.267465     -0.022170      0.009824
O      8.50569     10.54374     17.39634         0.734331     -0.025449     -0.171261
O     12.47271     10.54374      3.58206        -0.819632      0.099116      0.088472
O     12.47271     10.43466     17.39634        -0.468216      0.032669     -0.081171
O      3.58206      8.50569     10.43466         0.160050      1.061049     -0.027938
O     17.39634      8.50569     10.54374        -0.158344      0.576548      0.070680
O      3.58206     12.47271     10.54374         0.103079     -0.431398      0.044461
O     17.39634     12.47271     10.43466        -0.147780     -0.538076     -0.029415
O      3.58206     10.43466      8.50569         0.076661     -0.087796      0.614965
O     17.39634     10.54374      8.50569        -0.055961      0.087137      0.452766
O      3.58206     10.54374     12.47271         0.002928      0.032627     -0.490026
O     17.39634     10.43466     12.47271        -0.235778     -0.044387     -0.653950
O     10.43466      8.50569      3.58206        -0.038358      0.449038      0.140092
O     10.54374      8.50569     17.39634        -0.034516      0.654509     -0.197744
O     10.54374     12.47271      3.58206         0.040131     -1.013600      0.117033
O     10.43466     12.47271     17.39634         0.053439     -0.790655     -0.207322
O      8.50569      3.58206     10.43466         0.558875      0.156173     -0.055843
O      8.50569     17.39634     10.54374         0.519442     -0.183776      0.004088
O     12.47271      3.58206     10.54374        -0.606977      0.197005      0.001953
O     12.47271     17.39634     10.43466        -0.244001      0.064185     -0.044016
O     11.90042     11.90042     19.56718        -0.258473     -0.301527      0.234004
O     19.56718     19.56718     19.56718         0.322305      0.296478      0.263828
O     19.56718     11.90042     11.90042         0.313049     -0.261191     -0.237088
O     11.90042     19.56718     11.90042        -0.237076      0.301906     -0.324969
O      9.45224      1.03696      9.45224         0.000447      0.076328     -0.117770
O      1.03696      9.45224      9.45224         0.089164     -0.072539     -0.157029
O      1.03696      1.03696      1.03696         0.111895      0.171411      0.031923
O      9.45224      9.45224      1.03696        -0.096128     -0.110645      0.018684
Zr     10.48920      2.52580     10.48920        -0.101126     -0.236209     -0.012266
Zr     10.48920     18.45260     10.48920        -0.096936      0.188194      0.146662
Zr     10.48920     10.48920      2.52580        -0.112181     -0.432026     -0.218664
Zr     10.48920     10.48920     18.45260        -0.187418     -0.028433      0.400742
Zr      2.52580     10.48920     10.48920        -0.354026      0.265357      0.276711
Zr     18.45260     10.48920     10.48920         0.174435      0.005241     -0.133733
Pd     13.62392      8.94604      9.16552        -0.008716     -0.005297      0.017278
Pd      5.70059      9.77262     10.03403        -0.022241      0.023297      0.009886
Pd      6.80386     11.57876     11.69399        -0.017596      0.059572     -0.012794
Pd     12.19068     13.10028      7.33150        -0.004665     -0.002581      0.001854
Pd     12.05700      7.86505      7.24670        -0.019816     -0.005767      0.030127
Pd      8.29204      7.04982      6.57190        -0.001457     -0.004825      0.001022
Pd     10.89228     11.27527      5.58007        -0.008251     -0.008579      0.007755
Pd     14.60473      8.53162      6.71999        -0.020688      0.000625      0.012361
Pd      9.65251     11.79924      7.99723         0.001772     -0.002377      0.004514
Pd      6.77386      6.78630     12.27808         0.047687      0.008591     -0.016862
Pd      6.37807      7.60874      8.27029         0.004961      0.014189      0.002145
Pd      6.88662      8.72995     14.02567        -0.058277     -0.045500      0.058481
Pd     11.58147      6.53650      9.56571        -0.021849     -0.012633      0.033980
Pd      9.72727      9.29318      6.91699        -0.019485     -0.001802      0.028849
Pd      9.01766     13.96685      9.39406         0.000209      0.004712     -0.010554
Pd      9.85159      7.17611     11.61165        -0.094407      0.037196      0.024766
Pd     10.51765      8.97252      9.57717         0.002633     -0.003671      0.020869
Pd      9.33974     11.32336     10.60095        -0.000061      0.028878      0.001474
Pd      8.87554      7.00594      9.14150         0.004242     -0.006638     -0.005142
Pd      8.70326      6.78406     14.01813        -0.020553     -0.026298      0.062682
Pd      7.93547      9.08653     11.54493        -0.056018      0.084139      0.079580
Pd     11.96442     10.50286      7.83627        -0.000087     -0.006592      0.000108
Pd      7.13519     12.05489      9.10041        -0.000317     -0.002653     -0.021676
Pd      8.03235      9.58553      8.86634         0.007032     -0.012569      0.065486
Pd     14.12417      6.48608      8.46211        -0.017791     -0.004130      0.008457
Pd     12.50387      8.25220     11.48760        -0.020499     -0.000138      0.010989
Pd      8.77913     11.39673     13.41403        -0.014771      0.028866     -0.012362
Pd     13.90508     11.92876      9.03366         0.005634      0.003347     -0.007119
Pd     12.87743     10.57972     13.08998         0.002470      0.006036     -0.006188
Pd     14.73802     10.33939     11.13876         0.007296      0.008379     -0.002698
Pd     12.06149     10.74647     10.58190         0.003178      0.013957     -0.009021
Pd     11.44888     13.16284      9.85944         0.004010      0.018203      0.002351
Pd     13.56625     12.82605     11.66503         0.005403      0.007023     -0.000959
Pd     11.04137     12.53329     12.44463         0.005177      0.009436     -0.000698
Pd     11.05871     11.32514     14.87072        -0.024334     -0.026814     -0.015565
Pd     10.46521      9.59033     12.51343        -0.007359      0.029174     -0.020684
Pd      9.39925      9.26270     14.87420        -0.039595     -0.008923     -0.056486
Pd      8.67084     13.60095     11.99678         0.013711      0.035505     -0.002107
