152
# total energy = -1109.64737884 eVH     10.35389      5.87395      7.64558        -0.366606     -0.816263      1.437795
H     10.62451     15.10445      7.64558         0.301132      0.062705      0.872657
H     10.62451      5.87395     13.33282        -0.097423     -1.310119     -1.725690
H     10.35389     15.10445     13.33282        -0.626987      0.557921     -0.490896
H      7.64558     10.35389      5.87395         0.496360     -0.500819      0.019895
H      7.64558     10.62451     15.10445         0.348047     -0.288527      0.066712
H     13.33282     10.62451      5.87395        -0.375830      0.373140     -0.001146
H     13.33282     10.35389     15.10445        -0.462856      0.265793      0.120546
H      5.87395      7.64558     10.35389         0.011369      0.318252      0.055827
H     15.10445      7.64558     10.62451         0.271098      0.369254      0.042383
H      5.87395     13.33282     10.62451        -0.311902     -0.416513      0.422380
H     15.10445     13.33282     10.35389         0.056768     -0.324754     -0.418827
H      5.87395     10.35389      7.64558        -0.168698     -0.393241      1.670424
H     15.10445     10.62451      7.64558         0.121347      0.173346      0.888339
H      5.87395     10.62451     13.33282        -0.109805     -0.277552     -1.142192
H     15.10445     10.35389     13.33282         0.413745      0.564387     -1.251401
H     10.35389      7.64558      5.87395        -0.372553      0.695282     -0.423437
H     10.62451      7.64558     15.10445        -0.028285      0.725535      0.305539
H     10.62451     13.33282      5.87395         0.834965     -1.253795     -0.304247
H     10.35389     13.33282     15.10445         0.267202     -0.489571      0.010886
H      7.64558      5.87395     10.35389         0.988218      0.062311     -0.101993
H      7.64558     15.10445     10.62451         2.112371      0.762693      0.282652
H     13.33282      5.87395     10.62451        -2.213658     -0.714821     -0.047979
H     13.33282     15.10445     10.35389        -0.844757     -0.061807     -0.266774
H     12.45634     12.45634     19.01126         0.268481      0.260297     -0.231511
H     19.01126     19.01126     19.01126        -0.267288     -0.250000     -0.240243
H     19.01126     12.45634     12.45634        -0.278056      0.292667      0.183496
H     12.45634     19.01126     12.45634         0.257582     -0.251312      0.237389
C     10.35284      5.61067      6.59456         0.088605     -0.293722     -1.946999
C     10.62556     15.36773      6.59456         0.193550      0.555152     -0.834177
C     10.62556      5.61067     14.38384         0.023570     -0.141945      2.152097
C     10.35284     15.36773     14.38384         0.151838      0.054699      1.916831
C      6.59456     10.35284      5.61067        -1.162800     -0.200452     -0.989704
C      6.59456     10.62556     15.36773        -0.606900     -0.139310      0.696783
C     14.38384     10.62556      5.61067         0.626749     -0.130253     -0.741981
C     14.38384     10.35284     15.36773         1.115615      0.138755      0.928790
C      5.61067      6.59456     10.35284        -0.972369     -0.635673     -0.085049
C     15.36773      6.59456     10.62556         1.829889     -0.121830      0.020731
C      5.61067     14.38384     10.62556        -1.437275      0.203957      0.003614
C     15.36773     14.38384     10.35284         0.527910      0.270300     -0.027313
C      5.61067     10.35284      6.59456        -0.299455      0.399006     -1.886792
C     15.36773     10.62556      6.59456         0.318640      0.034253     -0.786123
C      5.61067     10.62556     14.38384        -0.445389      0.237747      1.562646
C     15.36773     10.35284     14.38384         0.145973     -0.386249      1.766257
C     10.35284      6.59456      5.61067        -0.177267     -1.522504     -1.134894
C     10.62556      6.59456     15.36773        -0.052527     -1.132737      1.248102
C     10.62556     14.38384      5.61067        -0.489712      2.028278     -0.637824
C     10.35284     14.38384     15.36773        -0.208203      1.623714      0.298238
C      6.59456      5.61067     10.35284        -1.038705     -0.295891      0.056473
C      6.59456     15.36773     10.62556        -1.567653      0.256188     -0.342094
C     14.38384      5.61067     10.62556         1.268153     -0.186923     -0.241304
C     14.38384     15.36773     10.35284         0.352119      0.198775      0.086044
C     10.40319      3.19606      7.29314         0.017509      0.307637     -0.135569
C     10.35913      4.25547      6.23373         0.061260     -0.366998      0.381667
C      0.08601      7.29314      7.29314        -0.049895     -0.372356     -0.433153
C      0.13007      6.23373      6.23373        -0.136518      0.825534      0.054663
C      0.08601      3.19606      3.19606        -0.125963      1.533443      0.171032
C      0.13007      4.25547      4.25547        -0.184145     -0.429659     -1.336022
C     10.40319      7.29314      3.19606         0.038670     -0.444187      0.084178
C     10.35913      6.23373      4.25547         0.184664      0.259648     -0.369184
C      7.29314     10.40319      3.19606        -1.774478      0.027717      0.247663
C      6.23373     10.35913      4.25547         0.511121      0.031025     -0.535053
C      7.29314      0.08601      7.29314        -0.381716      0.020747     -0.274513
C      6.23373      0.13007      6.23373         0.395117      0.005437      0.310163
C      3.19606      0.08601      3.19606         0.588806      0.015178      0.329402
C      4.25547      0.13007      4.25547        -0.419662     -0.000755     -0.428273
C      3.19606     10.40319      7.29314         0.375963      0.055284     -0.446818
C      4.25547     10.35913      6.23373        -0.720746      0.107424      0.437712
C      3.19606      7.29314     10.40319         0.398591     -0.376595      0.002183
C      4.25547      6.23373     10.35913        -0.020044      0.672151      0.103837
C      7.29314      7.29314      0.08601        -0.650844     -0.402314     -0.030702
C      6.23373      6.23373      0.13007         0.146069      1.315910      0.060686
C      3.19606      3.19606      0.08601         0.738401      0.424667     -0.011540
C      4.25547      4.25547      0.13007        -0.616792     -1.235238     -0.089137
C      7.29314      3.19606     10.40319        -0.373699      0.355479      0.002011
C      6.23373      4.25547     10.35913         0.558258     -0.274646      0.207306
O     10.43466      3.58206      8.50569        -0.044791      0.196664      0.284284
O     10.54374     17.39634      8.50569         0.042887     -0.212462      0.472216
O     10.54374      3.58206     12.47271         0.097811     -0.022531     -0.068801
O     10.43466     17.39634     12.47271        -0.038374     -0.109286     -0.229024
O      8.50569     10.43466      3.58206         0.938795      0.192346      0.411365
O      8.50569     10.54374     17.39634         0.559327      0.069425     -0.210629
O     12.47271     10.54374      3.58206        -0.469770     -0.006009      0.179344
O     12.47271     10.43466     17.39634        -0.512168     -0.070805     -0.181174
O      3.58206      8.50569     10.43466         0.155497      0.538096     -0.046336
O     17.39634      8.50569     10.54374        -0.173435      0.634369      0.047704
O      3.58206     12.47271     10.54374         0.154568     -0.614679      0.026604
O     17.39634     12.47271     10.43466        -0.182278     -0.557187     -0.007271
O      3.58206     10.43466      8.50569         0.226281     -0.086859      0.451985
O     17.39634     10.54374      8.50569        -0.160403      0.029453      0.429416
O      3.58206     10.54374     12.47271         0.165348     -0.006314     -0.410706
O     17.39634     10.43466     12.47271         0.088919     -0.059723     -0.037931
O     10.43466      8.50569      3.58206        -0.005720      0.346041      0.186591
O     10.54374      8.50569     17.39634         0.077084      0.480881     -0.207555
O     10.54374     12.47271      3.58206        -0.228201     -0.935973      0.345494
O     10.43466     12.47271     17.39634        -0.074878     -0.441331     -0.239803
O      8.50569      3.58206     10.43466         0.508294      0.182594     -0.018722
O      8.50569     17.39634     10.54374         0.591978     -0.204152      0.034561
O     12.47271      3.58206     10.54374        -0.692455      0.268061      0.041650
O     12.47271     17.39634     10.43466        -0.501883     -0.182646     -0.040406
O     11.90042     11.90042     19.56718        -0.328289     -0.308102      0.258602
O     19.56718     19.56718     19.56718         0.329474      0.304364      0.286503
O     19.56718     11.90042     11.90042         0.269842     -0.296098     -0.130055
O     11.90042     19.56718     11.90042        -0.317035      0.297112     -0.241810
O      9.45224      1.03696      9.45224        -0.052659      0.066784     -0.041392
O      1.03696      9.45224      9.45224         0.040563     -0.065146     -0.073038
O      1.03696      1.03696      1.03696         0.050105      0.122393      0.113508
O      9.45224      9.45224      1.03696        -0.126390     -0.072207      0.129945
Zr     10.48920      2.52580     10.48920         0.096410     -0.141379     -0.155495
Zr     10.48920     18.45260     10.48920        -0.028990      0.169031     -0.029292
Zr     10.48920     10.48920      2.52580         0.465829     -0.283717     -0.243442
Zr     10.48920     10.48920     18.45260        -0.032679     -0.062253      0.202606
Zr      2.52580     10.48920     10.48920        -0.078578      0.121882     -0.006430
Zr     18.45260     10.48920     10.48920         0.134937     -0.111534     -0.315359
Ir     12.00065     12.42606     10.45628         0.027380     -0.002133      0.002848
Ir     10.72316      7.34160     10.41045         0.113942      0.032416      0.025405
Ir      8.39439      7.47441     11.69660         0.108926     -0.001714     -0.037806
Ir      7.27588     11.78244      7.72529         0.134353     -0.018212     -0.044872
Ir     11.45920     12.04673      7.14312         0.047844      0.034428     -0.003052
Ir     13.42587      8.88325      7.60567        -0.212935     -0.192431      0.041802
Ir     12.42852     13.90252      8.42390         0.098989     -0.013851      0.013231
Ir      9.59680     11.27168      5.57189        -0.022647      0.059738     -0.006629
Ir      9.04232     13.44088      7.10115         0.026788      0.069443     -0.039692
Ir      9.04408      9.71547      7.59190         0.084906     -0.035446      0.025457
Ir     12.95668      7.19117     11.85025         0.059422     -0.125775      0.127551
Ir     13.02347      6.98196      9.12219         0.224762     -0.201095      0.146729
Ir     10.67793      7.56274     12.92990         0.063448      0.033828      0.012285
Ir     13.47385     11.45793      8.69341         0.078084     -0.043569      0.002034
Ir     11.31051      9.62934      6.30583        -0.020372      0.095409     -0.060380
Ir      6.76761      9.45168      9.11307         0.154150     -0.102554     -0.092816
Ir     14.14007     11.45054     11.47360        -0.032939     -0.120088      0.022113
Ir     11.41338      9.83181      8.96713         0.035593      0.128490     -0.005285
Ir      9.12522      9.58169     10.30778         0.062965      0.004519     -0.027859
Ir     13.63234      9.34144     10.17695        -0.020884     -0.105060     -0.010204
Ir     13.61970      9.31893     12.82292        -0.003322     -0.100520      0.047479
Ir     11.40180      9.63668     11.59635         0.046539      0.058424      0.010336
Ir      9.78884     11.79042      9.02497        -0.019615      0.079454     -0.010603
Ir      8.45927      7.53364      8.97040         0.312674     -0.030763     -0.070484
Ir     10.82404      7.61809      7.92763         0.462741      0.061809     -0.017066
Ir      9.01030      9.55707     13.06103         0.036017      0.015531     -0.023145
Ir      7.55488     14.05224      9.00562         0.036267     -0.008993     -0.008109
Ir     10.92866     13.99177     12.06372         0.053381      0.026572     -0.087421
Ir     10.12746     14.18814      9.59005         0.058657      0.062629     -0.017474
Ir      9.71518     11.69784     11.74385         0.016449      0.044869     -0.006258
Ir      7.48657     11.76009     10.29184        -0.003785     -0.022555     -0.031610
Ir      8.40871     13.86003     11.67289         0.018288      0.010782     -0.041659
Ir      7.49878     11.80560     12.96478        -0.002097      0.006315     -0.043627
Ir      9.82026     11.64547     14.32845        -0.039068      0.028161     -0.012798
Ir     13.47615     13.83407     12.16850         0.051462     -0.052237     -0.049793
Ir     12.09236     11.85044     13.03264        -0.038191      0.087539      0.003113
Ir     11.42706      9.70182     14.24622         0.009752      0.065940      0.003645
Ir      6.85123      9.62054     11.63540         0.078837     -0.000758     -0.058569
