152
# total energy = -1023.30179079 eVH     10.35389      5.87395      7.64558         0.487119      0.082472      0.710959
H     10.62451     15.10445      7.64558        -0.097448     -0.071585      0.787631
H     10.62451      5.87395     13.33282         0.147633      0.130722     -0.634495
H     10.35389     15.10445     13.33282        -0.190107     -0.112133     -0.551283
H      7.64558     10.35389      5.87395         0.312889     -0.021031      0.194678
H      7.64558     10.62451     15.10445         0.671005     -0.226520     -0.125643
H     13.33282     10.62451      5.87395        -0.757410     -0.129874      0.203388
H     13.33282     10.35389     15.10445        -0.466178     -0.117092     -0.046029
H      5.87395      7.64558     10.35389         0.211895      1.081289     -0.251677
H     15.10445      7.64558     10.62451        -0.171999      0.459845     -0.111519
H      5.87395     13.33282     10.62451         0.162549     -0.432089     -0.067450
H     15.10445     13.33282     10.35389        -0.127227     -0.914352      0.017720
H      5.87395     10.35389      7.64558         0.135925      0.095621      0.462060
H     15.10445     10.62451      7.64558         0.092919      0.007534      1.095859
H      5.87395     10.62451     13.33282         0.189302     -0.035406     -0.392591
H     15.10445     10.35389     13.33282        -0.111990     -0.057755     -0.566436
H     10.35389      7.64558      5.87395         0.117543      0.889692      0.193209
H     10.62451      7.64558     15.10445        -0.002551      0.480415     -0.166200
H     10.62451     13.33282      5.87395        -0.023670     -0.596260      0.232323
H     10.35389     13.33282     15.10445        -0.318548     -0.884122     -0.116965
H      7.64558      5.87395     10.35389         0.439765      0.096843     -0.046577
H      7.64558     15.10445     10.62451         0.861423     -0.277358      0.040695
H     13.33282      5.87395     10.62451        -0.454131      0.183961     -0.065198
H     13.33282     15.10445     10.35389        -0.656007     -0.095125      0.163747
H     12.45634     12.45634     19.01126         0.252379      0.265812     -0.229237
H     19.01126     19.01126     19.01126        -0.251520     -0.232964     -0.260684
H     19.01126     12.45634     12.45634        -0.238208      0.273603      0.237729
H     12.45634     19.01126     12.45634         0.224635     -0.264864      0.250441
C     10.35284      5.61067      6.59456        -0.195912     -0.373733     -0.018166
C     10.62556     15.36773      6.59456         0.061166      0.384760     -1.165061
C     10.62556      5.61067     14.38384        -0.054734     -0.226675      0.798561
C     10.35284     15.36773     14.38384         0.053993      0.881118      0.388605
C      6.59456     10.35284      5.61067        -0.375040     -0.036777     -0.178581
C      6.59456     10.62556     15.36773        -0.867211      0.216645      0.377767
C     14.38384     10.62556      5.61067         0.437700      0.292913     -0.510336
C     14.38384     10.35284     15.36773         0.797001     -0.119842      0.444652
C      5.61067      6.59456     10.35284        -0.310134     -0.646000      0.422862
C     15.36773      6.59456     10.62556         0.171072     -0.520411      0.071508
C      5.61067     14.38384     10.62556        -0.145764      0.399476     -0.021812
C     15.36773     14.38384     10.35284         0.393302     -0.053039     -0.114183
C      5.61067     10.35284      6.59456        -0.257458     -0.017200     -0.783113
C     15.36773     10.62556      6.59456         0.604114     -0.282908     -1.336452
C      5.61067     10.62556     14.38384        -0.355488      0.002449      0.424765
C     15.36773     10.35284     14.38384         0.508982     -0.168852      1.154872
C     10.35284      6.59456      5.61067        -0.170711     -0.497417     -0.448296
C     10.62556      6.59456     15.36773         0.051444     -0.573928      0.257728
C     10.62556     14.38384      5.61067         0.117470      1.023126     -0.481068
C     10.35284     14.38384     15.36773         0.238298      0.574225      0.559672
C      6.59456      5.61067     10.35284        -0.103858     -0.807377      0.072082
C      6.59456     15.36773     10.62556        -1.509231      0.401933      0.104248
C     14.38384      5.61067     10.62556         0.652238     -0.267054     -0.012300
C     14.38384     15.36773     10.35284        -0.436231      0.683480     -0.313749
C     10.40319      3.19606      7.29314         0.007215      0.857048     -0.300544
C     10.35913      4.25547      6.23373        -0.050580     -0.461651      0.526581
C      0.08601      7.29314      7.29314        -0.006632     -0.276314     -0.488832
C      0.13007      6.23373      6.23373         0.026087      0.123930      0.195695
C      0.08601      3.19606      3.19606        -0.011872      0.698481      0.195848
C      0.13007      4.25547      4.25547        -0.089577     -0.184409     -0.205570
C     10.40319      7.29314      3.19606        -0.006521     -0.674148      0.553720
C     10.35913      6.23373      4.25547        -0.036878      0.295535     -0.612552
C      7.29314     10.40319      3.19606        -0.344493      0.028807      0.921623
C      6.23373     10.35913      4.25547         0.183736      0.033390     -0.123016
C      7.29314      0.08601      7.29314        -0.319873     -0.039102     -0.295446
C      6.23373      0.13007      6.23373         0.342929     -0.052806      0.338099
C      3.19606      0.08601      3.19606         0.547768     -0.035044      0.691112
C      4.25547      0.13007      4.25547        -0.091350     -0.035049     -0.382077
C      3.19606     10.40319      7.29314         0.726509      0.001059     -0.410165
C      4.25547     10.35913      6.23373        -0.163820      0.036385      0.095528
C      3.19606      7.29314     10.40319         0.650860     -1.292839     -0.011173
C      4.25547      6.23373     10.35913        -0.636313      0.910729      0.083424
C      7.29314      7.29314      0.08601        -0.652035     -0.187542     -0.018969
C      6.23373      6.23373      0.13007         0.208931      0.203057      0.013124
C      3.19606      3.19606      0.08601         0.264898      0.291206     -0.020802
C      4.25547      4.25547      0.13007        -0.072047     -0.038022      0.000145
C      7.29314      3.19606     10.40319        -0.362221      0.981791      0.014768
C      6.23373      4.25547     10.35913         1.063656     -0.022203      0.012253
O     10.43466      3.58206      8.50569        -0.044266      0.043492      0.384777
O     10.54374     17.39634      8.50569        -0.036022     -0.164797      0.572981
O     10.54374      3.58206     12.47271         0.051430      0.047517     -0.295759
O     10.43466     17.39634     12.47271        -0.012231     -0.133420     -0.622615
O      8.50569     10.43466      3.58206         0.363850     -0.024887     -0.024787
O      8.50569     10.54374     17.39634         0.477838      0.045906     -0.147667
O     12.47271     10.54374      3.58206        -0.498229      0.012318      0.086948
O     12.47271     10.43466     17.39634        -0.808408      0.000785     -0.195581
O      3.58206      8.50569     10.43466         0.116902      1.053479      0.016512
O     17.39634      8.50569     10.54374        -0.036716      0.322582      0.074474
O      3.58206     12.47271     10.54374         0.072428     -0.460959      0.050581
O     17.39634     12.47271     10.43466        -0.176220     -0.883334      0.052371
O      3.58206     10.43466      8.50569        -0.064783     -0.070840      0.321351
O     17.39634     10.54374      8.50569        -0.129058      0.043782      0.458586
O      3.58206     10.54374     12.47271         0.082382     -0.021702     -0.623081
O     17.39634     10.43466     12.47271        -0.183808      0.052456     -0.770028
O     10.43466      8.50569      3.58206         0.030521      0.665101      0.157982
O     10.54374      8.50569     17.39634         0.063200      0.461951     -0.088334
O     10.54374     12.47271      3.58206        -0.019063     -0.769959      0.238441
O     10.43466     12.47271     17.39634         0.033661     -0.867735     -0.243258
O      8.50569      3.58206     10.43466         0.450504      0.027445     -0.038163
O      8.50569     17.39634     10.54374         0.676264     -0.263162     -0.058089
O     12.47271      3.58206     10.54374        -0.462237      0.152802      0.043691
O     12.47271     17.39634     10.43466        -0.532551     -0.014283     -0.009270
O     11.90042     11.90042     19.56718        -0.292393     -0.314647      0.254488
O     19.56718     19.56718     19.56718         0.283589      0.267035      0.310483
O     19.56718     11.90042     11.90042         0.262251     -0.321435     -0.237612
O     11.90042     19.56718     11.90042        -0.270908      0.280307     -0.265210
O      9.45224      1.03696      9.45224        -0.082470      0.042454     -0.069536
O      1.03696      9.45224      9.45224         0.018038     -0.165976     -0.099485
O      1.03696      1.03696      1.03696         0.001710      0.071357      0.184105
O      9.45224      9.45224      1.03696        -0.062939     -0.094347      0.112177
Zr     10.48920      2.52580     10.48920        -0.002550     -0.092547     -0.060762
Zr     10.48920     18.45260     10.48920         0.121000      0.335450     -0.005525
Zr     10.48920     10.48920      2.52580         0.019892     -0.056812     -0.415089
Zr     10.48920     10.48920     18.45260        -0.164959     -0.064042      0.388256
Zr      2.52580     10.48920     10.48920        -0.334560      0.247046     -0.112684
Zr     18.45260     10.48920     10.48920         0.275214     -0.011048     -0.287216
Pd      8.96335     10.12377     13.32682        -0.033718     -0.036319     -0.002312
Pd     10.68812      9.69098     10.80118        -0.028047     -0.031741     -0.052412
Pd     13.72429      8.44457     12.57885        -0.011385      0.030186     -0.005421
Pd     10.99359     10.90703     14.98153        -0.019693     -0.025605      0.019585
Pd     12.92270     11.06508     13.00634         0.001519      0.035488      0.057433
Pd     15.08563     11.08176     11.31499        -0.023368     -0.036769     -0.002327
Pd      6.60979      7.71555     12.32615         0.003897      0.027806      0.018665
Pd      9.31598      7.30701      9.85466        -0.008311     -0.004154     -0.020622
Pd      9.24220      7.48111     12.61751        -0.002290     -0.004176     -0.022817
Pd     11.64962      7.18365     11.40416         0.005541      0.016854     -0.021755
Pd     11.70145      7.98537      8.86812         0.005051     -0.021639     -0.038286
Pd      7.35892     11.78206     11.78498        -0.007601     -0.011657     -0.027154
Pd      9.19126     14.72125      9.44131         0.002186     -0.045499      0.007035
Pd      8.38501     12.55383     14.26805        -0.033159     -0.012079      0.001234
Pd     14.09670     14.25374      8.31329         0.001493     -0.007024     -0.001831
Pd     11.51119     13.63722      8.74317         0.020307     -0.017799      0.008499
Pd     14.15284     11.69485      8.88966        -0.010485     -0.011284     -0.011071
Pd      8.71629     14.03445     12.08396         0.006331     -0.022329      0.009014
Pd     12.26403     13.53867     14.14255        -0.012466      0.029604     -0.005615
Pd     11.34778     14.40053     11.44513        -0.000607     -0.030418      0.010535
Pd     14.07108     13.59920     12.26086        -0.008947     -0.015421     -0.011444
Pd     12.41478     12.12576     10.73740        -0.006557     -0.054082      0.025839
Pd     12.75339     12.54389      6.67173        -0.007125      0.009981     -0.001071
Pd     13.93700      8.99883      7.96380         0.000724     -0.006956     -0.025164
Pd      6.94462      8.49980      8.75915         0.001510     -0.017994     -0.020444
Pd      5.62312     10.10007     10.69982        -0.003266     -0.009971     -0.049945
Pd      9.39488      9.47051      8.07596        -0.007764     -0.013470     -0.051510
Pd      8.56416      7.03067      7.22870        -0.016930     -0.031337     -0.017908
Pd      9.75623     12.11464     10.39244        -0.029354     -0.014103      0.008736
Pd     11.63220     10.81936      8.45675        -0.010487      0.001154     -0.034962
Pd     11.59107      9.09160      6.44028         0.018304     -0.009754     -0.044779
Pd     10.10156     11.33780      6.24747         0.017497     -0.010401     -0.049137
Ir     11.28410      9.04328     13.18445        -0.027369      0.070168     -0.039526
Ir     13.22045      9.60252     10.35453         0.003909     -0.036205     -0.078700
Ir     10.54665     12.22216     12.76253        -0.013663     -0.012561      0.012250
Ir      7.60657     11.00518      9.25454         0.060902      0.042394     -0.045038
Ir      8.92494     12.56320      8.07269         0.058556     -0.095383      0.036289
Ir      8.19553      9.31648     11.00765         0.005195     -0.005316      0.002250
