152
# total energy = -1024.45305849 eVH     10.35389      5.87395      7.64558         0.486053      0.025484      0.755521
H     10.62451     15.10445      7.64558         0.066896     -0.201118      0.621591
H     10.62451      5.87395     13.33282         0.104482      0.148228     -0.589125
H     10.35389     15.10445     13.33282        -0.514767     -0.024905     -0.755841
H      7.64558     10.35389      5.87395         0.350538      0.026495      0.163392
H      7.64558     10.62451     15.10445         0.968990     -0.239034      0.060625
H     13.33282     10.62451      5.87395        -0.802983     -0.130507      0.153383
H     13.33282     10.35389     15.10445        -0.909084     -0.457906      0.220441
H      5.87395      7.64558     10.35389         0.158573      0.726442     -0.302107
H     15.10445      7.64558     10.62451        -0.142149      0.380256     -0.015136
H      5.87395     13.33282     10.62451         0.155562     -0.500847     -0.099488
H     15.10445     13.33282     10.35389        -0.090559     -1.175441      0.108842
H      5.87395     10.35389      7.64558         0.138009      0.165704      0.501670
H     15.10445     10.62451      7.64558         0.006333      0.111728      1.023802
H      5.87395     10.62451     13.33282         0.068062     -0.039515     -0.472551
H     15.10445     10.35389     13.33282        -0.191928     -0.133648     -0.415245
H     10.35389      7.64558      5.87395         0.082692      0.993404      0.221391
H     10.62451      7.64558     15.10445         0.001629      0.270844     -0.155688
H     10.62451     13.33282      5.87395        -0.085190     -0.392690      0.318809
H     10.35389     13.33282     15.10445        -0.432811     -0.564976      0.002935
H      7.64558      5.87395     10.35389         0.547171      0.083093     -0.115146
H      7.64558     15.10445     10.62451         0.959089     -0.199105     -0.211146
H     13.33282      5.87395     10.62451        -0.588932      0.086663     -0.068734
H     13.33282     15.10445     10.35389        -0.576120     -0.066491      0.264507
H     12.45634     12.45634     19.01126         0.237955      0.276761     -0.237114
H     19.01126     19.01126     19.01126        -0.248149     -0.249555     -0.242603
H     19.01126     12.45634     12.45634        -0.267357      0.264711      0.219288
H     12.45634     19.01126     12.45634         0.236676     -0.266964      0.240823
C     10.35284      5.61067      6.59456        -0.217598     -0.677201      0.080632
C     10.62556     15.36773      6.59456        -0.050982      0.378577     -0.841404
C     10.62556      5.61067     14.38384        -0.006760     -0.059089      0.725497
C     10.35284     15.36773     14.38384         0.209099      0.694781      0.163652
C      6.59456     10.35284      5.61067        -0.365108     -0.015234     -0.304638
C      6.59456     10.62556     15.36773        -1.113953      0.262498      0.283999
C     14.38384     10.62556      5.61067         0.440881      0.373580     -0.677109
C     14.38384     10.35284     15.36773         1.122997      0.049550      0.208278
C      5.61067      6.59456     10.35284        -0.437351     -0.373478      0.355669
C     15.36773      6.59456     10.62556         0.188392     -0.495504      0.009565
C      5.61067     14.38384     10.62556        -0.206167      0.539562     -0.010661
C     15.36773     14.38384     10.35284         0.305433      0.045763     -0.116896
C      5.61067     10.35284      6.59456        -0.333228     -0.083837     -0.989456
C     15.36773     10.62556      6.59456         0.895823     -0.343222     -0.953447
C      5.61067     10.62556     14.38384        -0.444069      0.030045      0.302993
C     15.36773     10.35284     14.38384         0.647193     -0.098181      1.043127
C     10.35284      6.59456      5.61067        -0.252137     -0.563972     -0.943858
C     10.62556      6.59456     15.36773         0.062446     -0.255949      0.049092
C     10.62556     14.38384      5.61067         0.061046      1.198143     -0.414077
C     10.35284     14.38384     15.36773         0.276233      0.175080      0.727877
C      6.59456      5.61067     10.35284        -0.195192     -0.741235      0.172692
C      6.59456     15.36773     10.62556        -1.261488      0.242732      0.183694
C     14.38384      5.61067     10.62556         1.087424     -0.299601      0.041382
C     14.38384     15.36773     10.35284        -0.454509      0.775965     -0.408877
C     10.40319      3.19606      7.29314        -0.035947      0.918290     -0.428203
C     10.35913      4.25547      6.23373         0.055317     -0.538556      0.530979
C      0.08601      7.29314      7.29314        -0.021180     -0.392817     -0.347472
C      0.13007      6.23373      6.23373        -0.024921      0.013647      0.097855
C      0.08601      3.19606      3.19606         0.010489      1.274712      0.197168
C      0.13007      4.25547      4.25547        -0.047062     -0.226728     -0.204226
C     10.40319      7.29314      3.19606        -0.013496     -1.055959      0.373573
C     10.35913      6.23373      4.25547         0.041990      0.486320     -0.663584
C      7.29314     10.40319      3.19606        -0.319869      0.028564      0.725873
C      6.23373     10.35913      4.25547         0.137304      0.058423     -0.099642
C      7.29314      0.08601      7.29314        -0.665475     -0.017779     -0.267576
C      6.23373      0.13007      6.23373         0.378680     -0.081906      0.565857
C      3.19606      0.08601      3.19606         1.002445     -0.006474      0.257157
C      4.25547      0.13007      4.25547        -0.171741     -0.037963     -0.526400
C      3.19606     10.40319      7.29314         0.356969     -0.008805     -0.924608
C      4.25547     10.35913      6.23373        -0.272428      0.090771      0.232699
C      3.19606      7.29314     10.40319         0.521764     -1.366779     -0.036945
C      4.25547      6.23373     10.35913        -0.566212      0.722412      0.102045
C      7.29314      7.29314      0.08601        -0.389023     -0.242212      0.003341
C      6.23373      6.23373      0.13007         0.158150      0.154236     -0.001970
C      3.19606      3.19606      0.08601         0.268031      0.241234     -0.016745
C      4.25547      4.25547      0.13007        -0.124778     -0.051684      0.005479
C      7.29314      3.19606     10.40319        -0.397398      0.616749      0.006692
C      6.23373      4.25547     10.35913         1.058364     -0.147998      0.051852
O     10.43466      3.58206      8.50569        -0.023500      0.033849      0.438207
O     10.54374     17.39634      8.50569        -0.005965     -0.116364      0.468888
O     10.54374      3.58206     12.47271         0.040824     -0.106925     -0.130299
O     10.43466     17.39634     12.47271        -0.058467     -0.042537     -0.476698
O      8.50569     10.43466      3.58206         0.289690     -0.028101     -0.040149
O      8.50569     10.54374     17.39634         0.719118      0.029099     -0.205392
O     12.47271     10.54374      3.58206        -0.782413     -0.037914      0.147769
O     12.47271     10.43466     17.39634        -0.284545     -0.030257      0.034249
O      3.58206      8.50569     10.43466         0.159670      1.119506     -0.030184
O     17.39634      8.50569     10.54374        -0.101806      0.445082      0.059668
O      3.58206     12.47271     10.54374         0.067356     -0.394429      0.035389
O     17.39634     12.47271     10.43466        -0.157404     -0.668915     -0.010550
O      3.58206     10.43466      8.50569         0.067864     -0.067985      0.793931
O     17.39634     10.54374      8.50569        -0.062149      0.043748      0.330394
O      3.58206     10.54374     12.47271        -0.011636      0.037815     -0.240195
O     17.39634     10.43466     12.47271        -0.255781     -0.005149     -0.719208
O     10.43466      8.50569      3.58206         0.118648      0.836826      0.192044
O     10.54374      8.50569     17.39634         0.032517      0.595359     -0.141087
O     10.54374     12.47271      3.58206         0.004691     -1.011917      0.176244
O     10.43466     12.47271     17.39634        -0.044407     -0.955341     -0.213661
O      8.50569      3.58206     10.43466         0.566896      0.131453     -0.015956
O      8.50569     17.39634     10.54374         0.501426     -0.192808     -0.010639
O     12.47271      3.58206     10.54374        -0.481473      0.163114      0.059313
O     12.47271     17.39634     10.43466        -0.402261      0.035373     -0.007928
O     11.90042     11.90042     19.56718        -0.269950     -0.324747      0.257165
O     19.56718     19.56718     19.56718         0.277037      0.293546      0.284262
O     19.56718     11.90042     11.90042         0.301561     -0.300424     -0.202768
O     11.90042     19.56718     11.90042        -0.263313      0.284577     -0.249395
O      9.45224      1.03696      9.45224        -0.080915      0.050030     -0.058608
O      1.03696      9.45224      9.45224         0.043053     -0.153727     -0.113487
O      1.03696      1.03696      1.03696         0.024752      0.121404      0.195958
O      9.45224      9.45224      1.03696        -0.069888     -0.086650      0.117251
Zr     10.48920      2.52580     10.48920        -0.050955     -0.127486     -0.167166
Zr     10.48920     18.45260     10.48920         0.007407      0.214452     -0.026731
Zr     10.48920     10.48920      2.52580        -0.164485     -0.194693     -0.512126
Zr     10.48920     10.48920     18.45260         0.010502     -0.030338      0.432263
Zr      2.52580     10.48920     10.48920        -0.371396      0.311670      0.169672
Zr     18.45260     10.48920     10.48920         0.205041      0.068227     -0.203337
Pd      8.27461      9.65468     13.27390        -0.002583     -0.018671     -0.019211
Pd     10.47738      9.42474     10.20178        -0.043765     -0.011385     -0.004739
Pd     12.96387      8.78917     12.48000         0.010454      0.000688      0.010073
Pd     10.29499     10.83668     15.07134        -0.004747     -0.003174     -0.011245
Pd     12.75498     11.36822     13.62033        -0.001216      0.026985     -0.007877
Pd     14.84786     10.55088     11.35792         0.004404     -0.003462     -0.001915
Pd      6.90077      7.44784     12.30444        -0.012772     -0.003536     -0.002182
Pd      9.20708      7.16959      9.47194        -0.017737      0.008513     -0.004079
Pd      9.59348      7.53429     12.22407        -0.011888      0.013047      0.009133
Pd     11.75307      7.06286     10.79910        -0.001049     -0.004374      0.000521
Pd     11.60852      7.81740      8.25843         0.025583      0.011010     -0.003618
Pd      7.17561     11.65411     11.52852        -0.003194      0.009638     -0.008326
Pd      9.27275     14.31043      9.24384        -0.004717     -0.001521     -0.001594
Pd      8.11115     12.29659     14.01440         0.008691      0.005896     -0.009363
Pd     14.21827     14.15921      8.35751         0.003079      0.003208      0.009776
Pd     11.72282     13.26823      8.80215         0.003408      0.000120     -0.006728
Pd     14.09688     11.58551      9.02045        -0.016258     -0.005484      0.008645
Pd      8.67869     13.97799     11.98481        -0.011522      0.000400      0.015720
Pd     12.22235     14.02333     13.92049        -0.004978     -0.032240     -0.015333
Pd     11.39582     14.13483     11.28280         0.019653      0.005541      0.007861
Pd     13.99688     13.23177     12.09153        -0.010741      0.007878      0.015475
Pd     12.26130     11.47572     10.92925         0.000421      0.011847      0.004380
Pd     12.99914     12.58418      6.60451        -0.008292     -0.002055     -0.002994
Pd     13.95165      8.83826      7.57841        -0.028639      0.000412      0.035952
Pd      6.95872      8.43027      8.39183         0.018701     -0.011638     -0.011468
Pd      5.55060     10.00816     10.07076        -0.018216     -0.007723      0.005492
Pd      9.37918      9.44267      7.44280        -0.005303     -0.001633      0.008567
Pd      8.47329      6.94948      6.87331        -0.001220     -0.001761      0.005256
Pd      9.67075     11.94010     10.50971        -0.013115     -0.002951     -0.011552
Pd     11.77236     10.60129      8.06840         0.006417     -0.013988      0.005599
Pd     11.79049      8.93602      5.85346        -0.010629     -0.004564      0.004726
Pd     10.60887     11.33318      5.73700        -0.012180     -0.002484      0.005865
Ir     10.71293      9.86054     12.70715        -0.015964     -0.009676      0.008796
Ir     13.12612      9.22264      9.95445         0.024125     -0.020699     -0.051757
Ir     10.46286     12.31453     12.88544        -0.002567      0.006259      0.049869
Ir      7.75917     10.93946      9.07077         0.003357      0.018981     -0.029042
Ir      9.55062     12.04805      7.95372        -0.004874     -0.002100      0.014557
Ir      7.99879      9.14696     10.74353         0.027450     -0.010314      0.041639
