152
# total energy = -1024.30350781 eVH     10.35389      5.87395      7.64558         0.469263      0.043699      0.737457
H     10.62451     15.10445      7.64558         0.009934     -0.186583      0.584377
H     10.62451      5.87395     13.33282         0.111920      0.157873     -0.590996
H     10.35389     15.10445     13.33282        -0.411028     -0.055326     -0.767537
H      7.64558     10.35389      5.87395         0.341635      0.008913      0.173915
H      7.64558     10.62451     15.10445         0.875970     -0.351723     -0.023934
H     13.33282     10.62451      5.87395        -0.763323     -0.048692      0.152919
H     13.33282     10.35389     15.10445        -0.873905     -0.388000      0.192474
H      5.87395      7.64558     10.35389         0.210706      0.601194     -0.058530
H     15.10445      7.64558     10.62451        -0.141279      0.399843     -0.041927
H      5.87395     13.33282     10.62451         0.163440     -0.520799     -0.110496
H     15.10445     13.33282     10.35389        -0.086471     -1.164541      0.007467
H      5.87395     10.35389      7.64558         0.135455      0.135166      0.506941
H     15.10445     10.62451      7.64558         0.044347      0.074425      1.031163
H      5.87395     10.62451     13.33282         0.109141     -0.044152     -0.419844
H     15.10445     10.35389     13.33282        -0.115479     -0.161352     -0.580753
H     10.35389      7.64558      5.87395         0.030883      0.970391      0.248610
H     10.62451      7.64558     15.10445         0.012150      0.279441     -0.176596
H     10.62451     13.33282      5.87395        -0.086960     -0.437656      0.324943
H     10.35389     13.33282     15.10445        -0.440296     -0.641248     -0.025989
H      7.64558      5.87395     10.35389         0.480052      0.120105      0.036863
H      7.64558     15.10445     10.62451         0.887307     -0.259757     -0.027055
H     13.33282      5.87395     10.62451        -0.574094      0.138023     -0.078100
H     13.33282     15.10445     10.35389        -0.648548     -0.055075      0.224264
H     12.45634     12.45634     19.01126         0.238613      0.275153     -0.235541
H     19.01126     19.01126     19.01126        -0.252481     -0.246416     -0.242497
H     19.01126     12.45634     12.45634        -0.262133      0.268482      0.221517
H     12.45634     19.01126     12.45634         0.231470     -0.264421      0.242386
C     10.35284      5.61067      6.59456        -0.193446     -0.621431      0.061833
C     10.62556     15.36773      6.59456        -0.022275      0.374556     -0.759383
C     10.62556      5.61067     14.38384        -0.015018     -0.070393      0.713013
C     10.35284     15.36773     14.38384         0.150986      0.723629      0.190503
C      6.59456     10.35284      5.61067        -0.373113     -0.024399     -0.272321
C      6.59456     10.62556     15.36773        -1.018229      0.353876      0.378832
C     14.38384     10.62556      5.61067         0.418601      0.319201     -0.608727
C     14.38384     10.35284     15.36773         0.958829     -0.009594      0.347906
C      5.61067      6.59456     10.35284        -0.387632     -0.458443      0.254743
C     15.36773      6.59456     10.62556         0.196769     -0.524734      0.029518
C      5.61067     14.38384     10.62556        -0.184620      0.578745      0.013448
C     15.36773     14.38384     10.35284         0.354422      0.023168     -0.129999
C      5.61067     10.35284      6.59456        -0.309377     -0.065982     -0.926055
C     15.36773     10.62556      6.59456         0.783525     -0.300108     -1.044748
C      5.61067     10.62556     14.38384        -0.487075      0.008276      0.288661
C     15.36773     10.35284     14.38384         0.663303     -0.103679      1.110846
C     10.35284      6.59456      5.61067        -0.247313     -0.625039     -0.847698
C     10.62556      6.59456     15.36773         0.051261     -0.292249      0.079365
C     10.62556     14.38384      5.61067         0.103485      1.219145     -0.436935
C     10.35284     14.38384     15.36773         0.222275      0.119598      0.701676
C      6.59456      5.61067     10.35284        -0.356532     -0.730433      0.074122
C      6.59456     15.36773     10.62556        -1.209908      0.281073      0.077911
C     14.38384      5.61067     10.62556         0.913102     -0.280332      0.026325
C     14.38384     15.36773     10.35284        -0.504071      0.759441     -0.321237
C     10.40319      3.19606      7.29314        -0.016249      0.826544     -0.391432
C     10.35913      4.25547      6.23373         0.043488     -0.456951      0.569976
C      0.08601      7.29314      7.29314        -0.017654     -0.489458     -0.350067
C      0.13007      6.23373      6.23373        -0.018955      0.017778      0.095441
C      0.08601      3.19606      3.19606        -0.000453      1.230293      0.186794
C      0.13007      4.25547      4.25547        -0.051668     -0.218859     -0.220270
C     10.40319      7.29314      3.19606        -0.003256     -1.037271      0.391042
C     10.35913      6.23373      4.25547         0.023358      0.465630     -0.650096
C      7.29314     10.40319      3.19606        -0.369891      0.042742      0.806004
C      6.23373     10.35913      4.25547         0.219399      0.088545     -0.113709
C      7.29314      0.08601      7.29314        -0.591684     -0.022337     -0.265360
C      6.23373      0.13007      6.23373         0.382936     -0.064462      0.455652
C      3.19606      0.08601      3.19606         0.904654     -0.012855      0.344502
C      4.25547      0.13007      4.25547        -0.106474     -0.050337     -0.502791
C      3.19606     10.40319      7.29314         0.471244     -0.001933     -0.774034
C      4.25547     10.35913      6.23373        -0.257186      0.105031      0.248143
C      3.19606      7.29314     10.40319         0.489060     -1.345437     -0.043697
C      4.25547      6.23373     10.35913        -0.380547      0.814004      0.050215
C      7.29314      7.29314      0.08601        -0.412796     -0.228469     -0.008820
C      6.23373      6.23373      0.13007         0.162117      0.144409     -0.014656
C      3.19606      3.19606      0.08601         0.248237      0.259434     -0.019983
C      4.25547      4.25547      0.13007        -0.102239     -0.050884      0.017841
C      7.29314      3.19606     10.40319        -0.362759      0.681260      0.011251
C      6.23373      4.25547     10.35913         1.107788      0.039342      0.008412
O     10.43466      3.58206      8.50569        -0.030051      0.058164      0.448428
O     10.54374     17.39634      8.50569        -0.004251     -0.087080      0.433999
O     10.54374      3.58206     12.47271         0.044446     -0.094063     -0.140134
O     10.43466     17.39634     12.47271        -0.056852     -0.049056     -0.475182
O      8.50569     10.43466      3.58206         0.309395     -0.032521     -0.046074
O      8.50569     10.54374     17.39634         0.681321      0.026751     -0.169102
O     12.47271     10.54374      3.58206        -0.732602     -0.035357      0.140722
O     12.47271     10.43466     17.39634        -0.435778     -0.027043     -0.040204
O      3.58206      8.50569     10.43466         0.137738      1.085172     -0.002494
O     17.39634      8.50569     10.54374        -0.083403      0.410555      0.064896
O      3.58206     12.47271     10.54374         0.068533     -0.411828      0.040348
O     17.39634     12.47271     10.43466        -0.160950     -0.697702      0.004228
O      3.58206     10.43466      8.50569         0.026491     -0.072400      0.658576
O     17.39634     10.54374      8.50569        -0.066548      0.043869      0.335880
O      3.58206     10.54374     12.47271        -0.007968      0.025208     -0.303250
O     17.39634     10.43466     12.47271        -0.244711      0.018890     -0.744211
O     10.43466      8.50569      3.58206         0.113448      0.836331      0.198995
O     10.54374      8.50569     17.39634         0.035598      0.674530     -0.162192
O     10.54374     12.47271      3.58206        -0.014969     -1.014798      0.204704
O     10.43466     12.47271     17.39634        -0.028856     -0.884411     -0.194033
O      8.50569      3.58206     10.43466         0.523739      0.103456     -0.018777
O      8.50569     17.39634     10.54374         0.531137     -0.209209     -0.014668
O     12.47271      3.58206     10.54374        -0.466786      0.155925      0.056626
O     12.47271     17.39634     10.43466        -0.380498      0.042192     -0.009149
O     11.90042     11.90042     19.56718        -0.275381     -0.324750      0.261060
O     19.56718     19.56718     19.56718         0.281566      0.284180      0.287158
O     19.56718     11.90042     11.90042         0.290639     -0.303522     -0.199018
O     11.90042     19.56718     11.90042        -0.269899      0.278942     -0.246428
O      9.45224      1.03696      9.45224        -0.086472      0.055292     -0.053869
O      1.03696      9.45224      9.45224         0.034788     -0.174075     -0.111231
O      1.03696      1.03696      1.03696         0.004522      0.115258      0.214562
O      9.45224      9.45224      1.03696        -0.061019     -0.088213      0.133641
Zr     10.48920      2.52580     10.48920        -0.023717     -0.120641     -0.173160
Zr     10.48920     18.45260     10.48920         0.020278      0.235667     -0.030182
Zr     10.48920     10.48920      2.52580        -0.093417     -0.174722     -0.542503
Zr     10.48920     10.48920     18.45260        -0.034602      0.038790      0.464798
Zr      2.52580     10.48920     10.48920        -0.368135      0.314942      0.104425
Zr     18.45260     10.48920     10.48920         0.202743      0.038097     -0.248065
Pd      8.56454      9.90846     13.22733        -0.014259     -0.005135      0.000013
Pd     10.53230      9.50890     10.26902        -0.009305     -0.012820      0.008757
Pd     13.35489      8.73177     12.48931        -0.022253      0.006508     -0.003285
Pd     10.43816     10.64040     15.09442        -0.000423      0.015859     -0.025321
Pd     12.97722     11.35448     13.47255        -0.030022      0.001561      0.000029
Pd     14.95280     10.70721     11.30046        -0.034199     -0.003301      0.021860
Pd      6.83700      7.85238     12.52359        -0.023659     -0.031597     -0.048739
Pd      9.22859      7.22920      9.57346        -0.011988      0.029832      0.009917
Pd      9.50219      7.55178     12.30909         0.047868      0.003631     -0.055849
Pd     11.75333      7.19912     10.95211        -0.042540     -0.026241      0.003297
Pd     11.59744      7.86367      8.35075         0.019651     -0.029320     -0.017591
Pd      7.16179     11.74357     11.62489         0.020586     -0.022947     -0.029005
Pd      9.20623     14.34420      9.36435         0.017322      0.001121     -0.005291
Pd      8.15702     12.39872     14.20686         0.009147     -0.006737     -0.026437
Pd     14.14379     14.20112      8.35854         0.034056      0.016462     -0.037565
Pd     11.65043     13.33641      8.82583         0.077779      0.053103      0.033850
Pd     14.09543     11.62414      8.95490        -0.013362      0.025573     -0.001199
Pd      8.75056     13.93297     12.13932        -0.001386     -0.007412     -0.037371
Pd     12.20512     13.91937     13.97761        -0.036488      0.000697      0.019803
Pd     11.38448     14.09419     11.37017         0.002951      0.003497     -0.024849
Pd     14.02651     13.42544     12.10494         0.026470     -0.036670     -0.011486
Pd     12.32539     11.59591     10.89544        -0.023177     -0.012711      0.034377
Pd     12.90014     12.61858      6.61265         0.006141      0.016366     -0.021617
Pd     13.90507      8.87854      7.58980         0.037118     -0.011702     -0.008362
Pd      6.95968      8.46828      8.49968         0.023466      0.001247     -0.005796
Pd      5.55112     10.03197     10.22736         0.035498      0.005108     -0.042392
Pd      9.35842      9.49102      7.56390         0.002120     -0.030290     -0.014985
Pd      8.50121      7.01023      6.96640         0.001754     -0.016657     -0.001172
Pd      9.67240     11.94810     10.56997        -0.025307     -0.002592      0.025823
Pd     11.74622     10.64973      8.09542         0.010780      0.010592      0.038940
Pd     11.70972      8.98330      5.91411         0.015671     -0.016238     -0.001532
Pd     10.48030     11.35085      5.78784        -0.018947      0.013749      0.023992
Ir     11.04167      9.66210     12.74547        -0.019127     -0.019045      0.000479
Ir     13.17738      9.30396      9.98950        -0.009700      0.006162     -0.004799
Ir     10.51188     12.10993     12.94453         0.010933      0.037875     -0.023383
Ir      7.69642     11.02333      9.13524        -0.018030     -0.035643      0.002381
Ir      9.49253     12.10879      8.01763         0.019788      0.001203     -0.052334
Ir      8.05810      9.25478     10.79875        -0.009149     -0.000528      0.010269
