152
# total energy = -1060.15578509 eVH     10.35389      5.87395      7.64558        -0.315105      0.100626      1.085967
H     10.62451     15.10445      7.64558         0.084940     -0.071501      0.897075
H     10.62451      5.87395     13.33282        -0.268373      0.072739     -0.781464
H     10.35389     15.10445     13.33282         0.094762     -0.303032     -0.819777
H      7.64558     10.35389      5.87395         0.893448     -0.199988      0.208368
H      7.64558     10.62451     15.10445         0.315880     -0.028978     -0.061962
H     13.33282     10.62451      5.87395        -0.884497      0.217510      0.218604
H     13.33282     10.35389     15.10445        -0.282072     -0.029144     -0.061638
H      5.87395      7.64558     10.35389         0.094083      0.419780     -0.013336
H     15.10445      7.64558     10.62451        -0.042664      0.441160     -0.026526
H      5.87395     13.33282     10.62451        -0.018364     -0.967586      0.077830
H     15.10445     13.33282     10.35389        -0.085790     -0.325146      0.002778
H      5.87395     10.35389      7.64558         0.320063      0.061411      0.370041
H     15.10445     10.62451      7.64558        -0.120741     -0.159641      0.666436
H      5.87395     10.62451     13.33282        -0.061311      0.448675     -0.598756
H     15.10445     10.35389     13.33282         0.224873     -0.634690     -0.873538
H     10.35389      7.64558      5.87395        -0.019128      0.500374      0.345032
H     10.62451      7.64558     15.10445         0.337590      0.793346     -0.005310
H     10.62451     13.33282      5.87395         0.150770     -0.568681      0.202182
H     10.35389     13.33282     15.10445         0.036569     -0.290799     -0.167661
H      7.64558      5.87395     10.35389         0.370791      0.114256      0.063133
H      7.64558     15.10445     10.62451         0.387051     -0.127594      0.179773
H     13.33282      5.87395     10.62451        -0.306209      0.136738     -0.013887
H     13.33282     15.10445     10.35389        -0.655774     -0.109409      0.138605
H     12.45634     12.45634     19.01126         0.259363      0.272042     -0.226583
H     19.01126     19.01126     19.01126        -0.247652     -0.267586     -0.244475
H     19.01126     12.45634     12.45634        -0.248836      0.271320      0.236757
H     12.45634     19.01126     12.45634         0.290120     -0.235159      0.235270
C     10.35284      5.61067      6.59456         0.403888     -0.421143     -1.359467
C     10.62556     15.36773      6.59456        -0.171570      0.610982     -0.663757
C     10.62556      5.61067     14.38384         0.365962     -0.275574      0.773698
C     10.35284     15.36773     14.38384        -0.203914      0.216664      1.019348
C      6.59456     10.35284      5.61067        -1.388292      0.029649     -0.225896
C      6.59456     10.62556     15.36773        -0.666972      0.064264      0.355781
C     14.38384     10.62556      5.61067         1.310258     -0.186465     -0.629409
C     14.38384     10.35284     15.36773         0.318205     -0.131462      0.349821
C      5.61067      6.59456     10.35284        -0.274432     -0.671163     -0.029942
C     15.36773      6.59456     10.62556         0.408638     -0.860342      0.026423
C      5.61067     14.38384     10.62556        -0.146839      1.194070     -0.218259
C     15.36773     14.38384     10.35284         0.502153      0.702270     -0.037479
C      5.61067     10.35284      6.59456        -0.373167     -0.103061     -0.784095
C     15.36773     10.62556      6.59456         0.401155      0.108076     -0.680787
C      5.61067     10.62556     14.38384        -0.410805     -0.162116      1.216548
C     15.36773     10.35284     14.38384         0.235460      0.225508      1.414119
C     10.35284      6.59456      5.61067        -0.069518     -0.745397     -0.546325
C     10.62556      6.59456     15.36773        -0.143319     -0.986342      0.375131
C     10.62556     14.38384      5.61067        -0.494317      0.380936     -0.739695
C     10.35284     14.38384     15.36773        -0.174937      0.748876      0.498853
C      6.59456      5.61067     10.35284        -0.560566     -0.334666      0.003616
C      6.59456     15.36773     10.62556        -0.360867      0.445752      0.065307
C     14.38384      5.61067     10.62556         0.433401     -0.312451      0.007985
C     14.38384     15.36773     10.35284         1.129703      0.486952     -0.078696
C     10.40319      3.19606      7.29314        -0.006836      0.778415     -0.335302
C     10.35913      4.25547      6.23373         0.022633     -0.380834      0.291057
C      0.08601      7.29314      7.29314        -0.018361     -0.380083     -0.506857
C      0.13007      6.23373      6.23373        -0.047098      0.881775      0.093976
C      0.08601      3.19606      3.19606        -0.007131      0.693703      0.259640
C      0.13007      4.25547      4.25547         0.046408     -0.266156     -0.547581
C     10.40319      7.29314      3.19606        -0.063562     -1.113018      0.621226
C     10.35913      6.23373      4.25547        -0.046720      0.346020     -0.201336
C      7.29314     10.40319      3.19606        -1.090228     -0.054742      0.201160
C      6.23373     10.35913      4.25547         0.378090      0.101468     -0.519392
C      7.29314      0.08601      7.29314        -0.478218      0.028810     -0.444720
C      6.23373      0.13007      6.23373         0.180763      0.122215      0.120760
C      3.19606      0.08601      3.19606         0.697488      0.022509      0.172951
C      4.25547      0.13007      4.25547        -0.172681     -0.051416     -0.363505
C      3.19606     10.40319      7.29314         0.367043     -0.026457     -0.951553
C      4.25547     10.35913      6.23373        -0.127544     -0.054957      0.114235
C      3.19606      7.29314     10.40319         0.617823     -0.400573      0.002488
C      4.25547      6.23373     10.35913        -0.114977      0.176444      0.010806
C      7.29314      7.29314      0.08601        -0.428898     -0.295814     -0.015165
C      6.23373      6.23373      0.13007         0.151822      0.154224     -0.064747
C      3.19606      3.19606      0.08601         0.294335      0.492798     -0.024941
C      4.25547      4.25547      0.13007        -0.404728     -0.241113     -0.031378
C      7.29314      3.19606     10.40319        -0.284275      0.595780     -0.010131
C      6.23373      4.25547     10.35913         0.015706     -0.093416      0.014383
O     10.43466      3.58206      8.50569        -0.026268      0.075399      0.303720
O     10.54374     17.39634      8.50569         0.064647     -0.123382      0.592430
O     10.54374      3.58206     12.47271         0.029528      0.102042     -0.398726
O     10.43466     17.39634     12.47271         0.094682     -0.061850     -0.433364
O      8.50569     10.43466      3.58206         0.733676     -0.072794      0.016441
O      8.50569     10.54374     17.39634         0.534860      0.061366     -0.104253
O     12.47271     10.54374      3.58206        -0.652778      0.112637      0.209670
O     12.47271     10.43466     17.39634        -0.279438      0.004407      0.036229
O      3.58206      8.50569     10.43466         0.034305      0.445131     -0.062972
O     17.39634      8.50569     10.54374        -0.053666      0.446284      0.056264
O      3.58206     12.47271     10.54374         0.104771     -0.588481      0.003812
O     17.39634     12.47271     10.43466        -0.180879     -0.743005     -0.049853
O      3.58206     10.43466      8.50569         0.209964     -0.060969      0.807943
O     17.39634     10.54374      8.50569        -0.073521      0.072261      0.491803
O      3.58206     10.54374     12.47271        -0.001743     -0.005953     -0.264272
O     17.39634     10.43466     12.47271         0.035151     -0.010310     -0.233921
O     10.43466      8.50569      3.58206        -0.108256      0.532783     -0.100052
O     10.54374      8.50569     17.39634         0.058921      0.510849     -0.085886
O     10.54374     12.47271      3.58206         0.102931     -0.636875      0.128709
O     10.43466     12.47271     17.39634        -0.066078     -0.690063     -0.275114
O      8.50569      3.58206     10.43466         0.397212      0.022508     -0.046596
O      8.50569     17.39634     10.54374         0.641548     -0.153750      0.045892
O     12.47271      3.58206     10.54374        -0.517212      0.121344      0.028257
O     12.47271     17.39634     10.43466        -0.624525     -0.123427      0.040941
O     11.90042     11.90042     19.56718        -0.278590     -0.304407      0.222657
O     19.56718     19.56718     19.56718         0.310135      0.322611      0.297382
O     19.56718     11.90042     11.90042         0.284131     -0.325310     -0.236169
O     11.90042     19.56718     11.90042        -0.313852      0.229114     -0.201836
O      9.45224      1.03696      9.45224        -0.073281      0.086584     -0.081066
O      1.03696      9.45224      9.45224         0.100783     -0.108051     -0.062389
O      1.03696      1.03696      1.03696         0.080086      0.053817      0.097249
O      9.45224      9.45224      1.03696        -0.058247     -0.126145      0.135620
Zr     10.48920      2.52580     10.48920         0.044144     -0.094051      0.122605
Zr     10.48920     18.45260     10.48920        -0.183704      0.247042     -0.359716
Zr     10.48920     10.48920      2.52580         0.112223      0.357994     -0.343543
Zr     10.48920     10.48920     18.45260        -0.078109     -0.260295      0.236829
Zr      2.52580     10.48920     10.48920        -0.240511      0.132212      0.244449
Zr     18.45260     10.48920     10.48920         0.195791     -0.138766     -0.018851
Pd      9.36210     14.30391      9.30955         0.005689      0.028741     -0.029301
Pd      8.58987     13.63555     13.05323         0.005135      0.006226      0.031152
Pd     12.02544     14.40618      8.74438         0.010060     -0.001293      0.005511
Pd     12.75114     12.87501     10.67951        -0.040541     -0.015815      0.026850
Pd     12.12059      7.19327     12.67593         0.001614     -0.009774      0.001476
Pd     11.15887     14.90466     11.45173        -0.020426      0.025709     -0.018348
Pd     10.02937     12.55879     11.08665        -0.026273      0.036518     -0.024237
Pd     13.48362     12.15746      7.98371         0.007516      0.008393      0.011171
Pd     11.48099     11.54495      6.10991         0.006904      0.014113     -0.001987
Pd      7.94266      8.37359      7.52296         0.000757     -0.033938     -0.002410
Pd      8.72153     11.75801      6.84650        -0.000367      0.001941     -0.001135
Pd     10.31785      9.45466      8.15290        -0.030257      0.001375      0.016715
Pd      8.49626     14.46494      6.78840        -0.010624      0.003643     -0.021264
Pd     12.39506      9.02285      6.57663        -0.014490      0.027872      0.037157
Pd      9.71986      9.61049      5.57381         0.008360      0.007019      0.003999
Pd      6.81438      9.45087     12.13719         0.013190     -0.000714      0.008289
Pd     12.17991      6.74256      7.95307         0.010136      0.001431      0.001026
Pd      5.91532     10.48300      9.68975        -0.005334     -0.005682      0.006973
Pd      7.55054      7.23855     13.40410        -0.008136     -0.015675     -0.014000
Ir     11.73601      9.77705     13.06649        -0.050036      0.001466      0.027827
Ir     13.55192      9.05789     11.47784         0.006088      0.020750      0.002697
Ir      9.42508      8.86114     14.01039        -0.011126      0.042009     -0.002916
Ir     10.50213     11.02437     14.88287        -0.013395     -0.067701      0.028875
Ir      7.26822     12.01494     11.34130        -0.035580      0.016608     -0.000724
Ir     14.65351     10.91145     10.15176        -0.035043      0.015453      0.049417
Ir     12.16788     10.56651      9.67188         0.018049      0.002524     -0.017773
Ir      8.74176     10.99663     12.98690         0.078021     -0.017638      0.045627
Ir     10.10879      9.92033     11.17238        -0.008514      0.003974     -0.022416
Ir     13.73733     11.42042     12.48796        -0.038708      0.003528      0.037183
Ir     11.59021     12.35663     13.08479        -0.097548     -0.039395      0.015735
Ir      8.49838     11.10098      9.33633         0.013411     -0.019593     -0.007353
Ir     11.59470      8.02753     10.14330         0.005101     -0.006689      0.003873
Ir      7.21925     13.03293      8.65770        -0.005341      0.034922      0.003302
Ir      9.54958      6.96188      9.24021         0.007193      0.007938      0.009912
Ir      8.05490      8.76521     10.05721         0.009906      0.005814     -0.021149
Ir     10.72437     12.12330      8.50574        -0.000245     -0.003388     -0.000793
Ir      9.51549      7.57497     11.75583         0.006991      0.017981     -0.011221
Ir     13.67339      8.79063      8.84462         0.025084      0.002403      0.030100
