9
# total energy = -66.42762792 eVC      0.00000      1.39892      7.50000         0.000000     -0.004568      0.000000
C      4.65392      2.68694      7.50000         0.003956      0.002284      0.000000
C      1.21150     -0.69946      7.50000        -0.003956      0.002284     -0.000000
C      0.00000      5.37388      7.50000         0.000000      0.004568      0.000000
C      1.21150      0.69946      7.50000        -0.003956     -0.002284     -0.000000
C      4.65392     -2.68694      7.50000         0.003956     -0.002284      0.000000
Ir      2.93271     -1.69320      7.50000         0.000000      0.000000      0.000000
Ir      0.00000      3.38640      7.50000         0.000000      0.000000      0.000000
Ir      2.93271      1.69320      7.50000         0.000000      0.000000      0.000000
