38
# total energy = -255.12827394 eVH      1.22601      6.94170      7.50000        -0.020308      0.037066     -0.000000
H      8.09927      6.77059      7.50000         0.008867     -0.023611      0.000000
H      4.45940     13.86395      7.50000        -0.000743     -0.003771      0.000000
H     12.67380      2.18142      7.50000         0.020308     -0.037066      0.000000
H      5.80054      2.35253      7.50000        -0.008867      0.023611     -0.000000
H      9.44041     -4.74082      7.50000         0.000743      0.003771      0.000000
H      5.81341     -2.34466      7.50000        -0.002020     -0.040133     -0.000000
H      9.44175      4.72632      7.50000        -0.017124     -0.005617      0.000000
H     12.66450     -2.17428      7.50000         0.009426      0.000343      0.000000
H      8.08641     11.46779      7.50000         0.002020      0.040133     -0.000000
H      4.45806      4.39680      7.50000         0.017124      0.005617      0.000000
H      1.23531     11.29740      7.50000        -0.009426     -0.000343      0.000000
C      7.73638     -3.36795      7.50000        -0.033142     -0.054177      0.000000
C     12.48041      0.00335      7.50000         0.035798     -0.022440     -0.000000
C      7.72914      3.36278      7.50000         0.001282      0.047388      0.000000
C      6.16343     12.49107      7.50000         0.033142      0.054177      0.000000
C      1.41940      9.11977      7.50000        -0.035798      0.022440     -0.000000
C      6.17067      5.76034      7.50000        -0.001282     -0.047388      0.000000
C     13.20739     -1.22696      7.50000         0.015622      0.034081      0.000000
C      8.35140      4.64264      7.50000         0.027030     -0.058094     -0.000000
C      6.31433     -3.31669      7.50000         0.004805      0.064880     -0.000000
C      0.69242     10.35009      7.50000        -0.015622     -0.034081      0.000000
C      5.54841      4.48048      7.50000        -0.027030      0.058094      0.000000
C      7.58548     12.43981      7.50000        -0.004805     -0.064880     -0.000000
C      5.54874     13.77431      7.50000        -0.016096     -0.041421     -0.000000
C      7.59214      5.80233      7.50000         0.005714      0.065960     -0.000000
C      0.68808      7.89316      7.50000        -0.010363     -0.021672     -0.000000
C      8.35107     -4.65119      7.50000         0.016096      0.041421      0.000000
C      6.30767      3.32079      7.50000        -0.005714     -0.065960     -0.000000
C     13.21174      1.22996      7.50000         0.010363      0.021672     -0.000000
N      5.85401      9.13126      7.50000         0.045566      0.009818      0.000000
N      8.04580     -0.00814      7.50000        -0.045566     -0.009818     -0.000000
Ir      8.76996      1.64496      7.50000         0.027134      0.058902     -0.000000
Ir      8.78207     -1.65655      7.50000         0.013476     -0.041978      0.000000
Ir     10.54719      0.00020      7.50000         0.002627      0.014311     -0.000000
Ir      5.12985      7.47816      7.50000        -0.027134     -0.058902     -0.000000
Ir      5.11775     10.77967      7.50000        -0.013476      0.041978     -0.000000
Ir      3.35262      9.12292      7.50000        -0.002627     -0.014311      0.000000
