152
# total energy = -1002.86861429 eVH     10.35389      5.87395      7.64558        -0.026206      0.162110      1.021007
H     10.62451     15.10445      7.64558         0.003008     -0.098026      1.074276
H     10.62451      5.87395     13.33282         0.061616      0.015777     -1.105567
H     10.35389     15.10445     13.33282        -0.150446     -0.175285     -0.929496
H      7.64558     10.35389      5.87395         0.910561      0.333151     -0.255274
H      7.64558     10.62451     15.10445         0.744895      0.317977      0.055557
H     13.33282     10.62451      5.87395        -0.509512      0.146231      0.002546
H     13.33282     10.35389     15.10445        -0.679605     -0.161993      0.050777
H      5.87395      7.64558     10.35389        -0.336582      2.153652      0.275280
H     15.10445      7.64558     10.62451         0.048926      1.416545      0.044718
H      5.87395     13.33282     10.62451         0.047392     -0.972824     -0.124434
H     15.10445     13.33282     10.35389         0.145033     -1.196026     -0.370480
H      5.87395     10.35389      7.64558        -0.880239      0.353742      1.373269
H     15.10445     10.62451      7.64558         0.272520      0.743031      1.617118
H      5.87395     10.62451     13.33282        -0.485894      0.510721     -1.291429
H     15.10445     10.35389     13.33282         1.191316     -0.080588     -1.175018
H     10.35389      7.64558      5.87395         0.470201      1.232710     -0.049198
H     10.62451      7.64558     15.10445         0.308793      0.738660     -0.070539
H     10.62451     13.33282      5.87395        -0.385360     -0.919069      0.023563
H     10.35389     13.33282     15.10445        -0.129041     -0.486843     -0.156573
H      7.64558      5.87395     10.35389         0.795285     -0.155255     -0.009936
H      7.64558     15.10445     10.62451         0.537984     -0.167800     -0.054599
H     13.33282      5.87395     10.62451        -1.038946      0.037873      0.297570
H     13.33282     15.10445     10.35389        -0.428866     -0.087543     -0.059077
H     12.45634     12.45634     19.01126         0.262655      0.235103     -0.246061
H     19.01126     19.01126     19.01126        -0.258324     -0.252130     -0.236024
H     19.01126     12.45634     12.45634        -0.256791      0.266913      0.232194
H     12.45634     19.01126     12.45634         0.264616     -0.264159      0.226224
C     10.35284      5.61067      6.59456        -0.117998     -0.937973     -0.975599
C     10.62556     15.36773      6.59456        -0.043121      0.470240     -0.925921
C     10.62556      5.61067     14.38384        -0.157799     -0.583183      1.498516
C     10.35284     15.36773     14.38384         0.148833      0.300864      0.948854
C      6.59456     10.35284      5.61067        -1.734109      0.179500     -1.055337
C      6.59456     10.62556     15.36773        -1.058243      0.235189      0.814451
C     14.38384     10.62556      5.61067         1.546732      0.163548     -0.948098
C     14.38384     10.35284     15.36773         1.226146      0.012891      0.783352
C      5.61067      6.59456     10.35284        -0.632087     -1.453131     -0.007964
C     15.36773      6.59456     10.62556         0.567730     -0.572818      0.107481
C      5.61067     14.38384     10.62556        -0.345055      1.074788      0.058202
C     15.36773     14.38384     10.35284         0.299274      1.418471      0.081002
C      5.61067     10.35284      6.59456        -0.406774     -0.009715     -1.697131
C     15.36773     10.62556      6.59456         0.502711      0.027778     -1.359257
C      5.61067     10.62556     14.38384        -0.255149     -0.057000      1.406865
C     15.36773     10.35284     14.38384         0.063966     -0.041750      1.752022
C     10.35284      6.59456      5.61067        -0.019026     -1.107162     -0.661335
C     10.62556      6.59456     15.36773         0.079209     -0.691438      0.627408
C     10.62556     14.38384      5.61067         0.104072      0.740432     -0.503605
C     10.35284     14.38384     15.36773        -0.039820      0.463709      0.429692
C      6.59456      5.61067     10.35284        -0.431483     -1.188381      0.012540
C      6.59456     15.36773     10.62556        -0.682730      0.618583      0.005180
C     14.38384      5.61067     10.62556         0.614132     -0.818068     -0.107475
C     14.38384     15.36773     10.35284         0.422383      0.547171     -0.049957
C     10.40319      3.19606      7.29314        -0.025330      0.325812     -0.866631
C     10.35913      4.25547      6.23373        -0.058000     -0.520448      0.166960
C      0.08601      7.29314      7.29314        -0.013553     -0.527122     -0.327004
C      0.13007      6.23373      6.23373        -0.040474      0.398458      0.344639
C      0.08601      3.19606      3.19606         0.003719      0.399861      0.531510
C      0.13007      4.25547      4.25547        -0.002317     -0.445279     -0.418692
C     10.40319      7.29314      3.19606        -0.048891     -0.756756      0.257036
C     10.35913      6.23373      4.25547         0.007236      0.268131     -0.618910
C      7.29314     10.40319      3.19606        -0.693402     -0.016129      0.145413
C      6.23373     10.35913      4.25547         0.358204     -0.038345     -0.412446
C      7.29314      0.08601      7.29314        -0.587830     -0.070272     -0.293825
C      6.23373      0.13007      6.23373         0.553715     -0.160075      0.299620
C      3.19606      0.08601      3.19606         0.721030     -0.045228      0.217152
C      4.25547      0.13007      4.25547        -0.470605     -0.254685     -0.451094
C      3.19606     10.40319      7.29314         0.372104      0.001542     -0.173782
C      4.25547     10.35913      6.23373        -0.281083     -0.027806      0.386612
C      3.19606      7.29314     10.40319         0.288632     -0.424131      0.007344
C      4.25547      6.23373     10.35913        -0.845576      0.169586      0.075579
C      7.29314      7.29314      0.08601        -0.411218     -0.377559     -0.020006
C      6.23373      6.23373      0.13007         0.738935      0.078211     -0.016104
C      3.19606      3.19606      0.08601         0.763948      0.319945     -0.017913
C      4.25547      4.25547      0.13007        -0.290729     -0.700072     -0.063061
C      7.29314      3.19606     10.40319        -0.374713      0.441038      0.013690
C      6.23373      4.25547     10.35913         0.432922     -0.518276      0.075553
O     10.43466      3.58206      8.50569         0.083121      0.245241      0.734224
O     10.54374     17.39634      8.50569         0.016241     -0.146725      0.408799
O     10.54374      3.58206     12.47271         0.094645      0.176350     -0.544293
O     10.43466     17.39634     12.47271        -0.030996     -0.084569     -0.342745
O      8.50569     10.43466      3.58206         0.685167     -0.084530      0.222215
O      8.50569     10.54374     17.39634         0.661302     -0.024297     -0.239856
O     12.47271     10.54374      3.58206        -0.717015      0.077410      0.266216
O     12.47271     10.43466     17.39634        -0.508038      0.018084     -0.222762
O      3.58206      8.50569     10.43466         0.177602      0.579967     -0.025307
O     17.39634      8.50569     10.54374        -0.153381      0.522530      0.038606
O      3.58206     12.47271     10.54374         0.081831     -0.407713      0.033769
O     17.39634     12.47271     10.43466        -0.167356     -0.543010     -0.030820
O      3.58206     10.43466      8.50569         0.157129     -0.024148      0.327903
O     17.39634     10.54374      8.50569        -0.098964      0.074874      0.366370
O      3.58206     10.54374     12.47271         0.068773      0.052729     -0.284200
O     17.39634     10.43466     12.47271        -0.064763     -0.020559     -0.218454
O     10.43466      8.50569      3.58206        -0.089527      0.706803      0.184119
O     10.54374      8.50569     17.39634        -0.018891      0.608488     -0.192534
O     10.54374     12.47271      3.58206         0.033934     -0.494210      0.104835
O     10.43466     12.47271     17.39634        -0.019642     -0.372221     -0.041414
O      8.50569      3.58206     10.43466         0.590212      0.144025     -0.042710
O      8.50569     17.39634     10.54374         0.579201     -0.176943      0.033220
O     12.47271      3.58206     10.54374        -0.748574      0.153820      0.022931
O     12.47271     17.39634     10.43466        -0.528776     -0.141927     -0.029456
O     11.90042     11.90042     19.56718        -0.305589     -0.247776      0.269458
O     19.56718     19.56718     19.56718         0.302687      0.311899      0.266018
O     19.56718     11.90042     11.90042         0.313608     -0.303050     -0.242482
O     11.90042     19.56718     11.90042        -0.318131      0.329270     -0.226003
O      9.45224      1.03696      9.45224        -0.020199      0.099563     -0.082854
O      1.03696      9.45224      9.45224         0.044040     -0.016697     -0.093042
O      1.03696      1.03696      1.03696         0.032106      0.092996      0.097459
O      9.45224      9.45224      1.03696        -0.051712     -0.025676      0.125387
Zr     10.48920      2.52580     10.48920        -0.175904     -0.315156      0.112036
Zr     10.48920     18.45260     10.48920         0.078350      0.086428     -0.026541
Zr     10.48920     10.48920      2.52580         0.033837      0.063554     -0.373286
Zr     10.48920     10.48920     18.45260         0.017050     -0.051915      0.263298
Zr      2.52580     10.48920     10.48920        -0.082262     -0.122886     -0.018367
Zr     18.45260     10.48920     10.48920         0.095871     -0.008683     -0.048199
Pd     11.86557      8.55236     10.33789        -0.025022     -0.039933     -0.082241
Pd      7.21183     10.03993     10.42696         0.054508     -0.097675     -0.008730
Pd      7.25079     12.40169     11.76448        -0.035512     -0.075974      0.050152
Pd     12.04609     13.35777      7.40093        -0.061162     -0.025884      0.068107
Pd     11.49637      8.25023      7.54998        -0.000857     -0.041783      0.006411
Pd      8.79275      7.31058      7.20767         0.021334     -0.045287     -0.008266
Pd     11.64659     10.97186      6.22927        -0.101221      0.120381     -0.007051
Pd     13.78351      9.35487      7.62688        -0.079784     -0.051740      0.037242
Pd      9.49756     11.84273      7.51609        -0.031586      0.020367      0.010976
Pd      7.10103      7.65157     11.81731        -0.154140     -0.190741     -0.008792
Pd      6.91098      7.66145      8.84854         0.042392     -0.046244      0.080904
Pd      7.50228      9.86788     13.06006         0.027960      0.005322      0.050378
Pd     11.42428      6.02113      9.16058        -0.021573     -0.004207      0.033468
Pd      9.50739      9.60451      5.98662        -0.039009     -0.049736     -0.013421
Pd      9.33330     14.15447      8.83148        -0.027680     -0.085554      0.084011
Pd     11.48893      6.36289     11.79250        -0.004309      0.085302     -0.049569
Pd      9.67186      9.34627      9.01411         0.034890     -0.001000     -0.100037
Pd      9.39494     11.73819     10.19570         0.019845      0.046588      0.104817
Pd      9.32249      7.09966     10.30677         0.048029     -0.020582      0.019549
Pd      9.16297      7.27357     13.29772         0.053182      0.053862      0.139243
Pd      9.56306      9.37839     11.65088        -0.000653      0.021354      0.069917
Pd     11.79681     10.89041      8.85073        -0.050631      0.036045      0.004534
Pd      7.16170     12.46820      8.99883         0.051928     -0.063390     -0.090765
Pd      7.57354      9.95258      7.86623         0.224347      0.079872      0.112312
Pd     13.80482      7.15917      8.95305        -0.030359      0.000258     -0.087330
Pd     13.81576      7.85934     12.12116         0.011532     -0.121067      0.019208
Pd      9.45432     11.80441     13.05124         0.022069     -0.156294      0.065287
Pd     14.03751     12.27574      8.77637         0.075599      0.025832     -0.067754
Pd     13.49034     10.43013     12.80639         0.148193     -0.062324      0.082787
Pd     14.06614      9.99439     10.25939        -0.014496      0.065602     -0.044320
Pd     11.55321     11.12304     11.48789        -0.287279     -0.073651     -0.300184
Pd     11.62245     13.41962     10.02418        -0.017676     -0.017952      0.049382
Pd     13.76314     12.63346     11.45007        -0.020494      0.002869      0.004503
Pd     11.69517     13.47392     12.85785         0.032488      0.014020      0.023019
Pd     11.61340     11.32117     14.48021        -0.014079      0.004821     -0.037140
Pd     11.55453      8.74075     13.23042        -0.108714     -0.055526     -0.084000
Pd      9.54801      9.61822     14.76276         0.009871      0.031732      0.021851
Pd      9.41680     14.06833     11.49648        -0.046429      0.021378      0.064092
