22
# total energy = -134.22577539 eVC      8.76211      1.73190      7.50000        -0.026213     -0.020540     -0.000000
C      0.71685      7.74706      7.50000         0.026213      0.020540     -0.000000
C      7.74706      8.76211      7.50000         0.020540     -0.026213     -0.000000
C      1.73190      0.71685      7.50000        -0.020540      0.026213      0.000000
C      0.71685      1.73190      7.50000         0.026213     -0.020540      0.000000
C      8.76211      7.74706      7.50000        -0.026213      0.020540      0.000000
C      1.73190      8.76211      7.50000        -0.020540     -0.026213     -0.000000
C      7.74706      0.71685      7.50000         0.020540      0.026213     -0.000000
O      8.23947      2.96595      7.50000         0.051922      0.041377      0.000000
O      1.23949      6.51301      7.50000        -0.051922     -0.041377     -0.000000
O      6.51301      8.23947      7.50000        -0.041377      0.051922     -0.000000
O      2.96595      1.23949      7.50000         0.041377     -0.051922      0.000000
O      1.23949      2.96595      7.50000        -0.051922      0.041377     -0.000000
O      8.23947      6.51301      7.50000         0.051922     -0.041377     -0.000000
O      2.96595      8.23947      7.50000         0.041377      0.051922      0.000000
O      6.51301      1.23949      7.50000        -0.041377     -0.051922      0.000000
Au     -0.00000      4.73948      7.50000         0.000000      0.000000     -0.000000
Au      4.73948      0.00000      7.50000         0.000000      0.000000     -0.000000
Au      3.44474      6.03422      7.50000        -0.002111      0.002111     -0.000000
Au      6.03422      3.44474      7.50000         0.002111     -0.002111      0.000000
Au      3.44474      3.44474      7.50000        -0.002111     -0.002111      0.000000
Au      6.03422      6.03422      7.50000         0.002111      0.002111     -0.000000
