152
# total energy = -1060.56715608 eVH     10.35389      5.87395      7.64558        -0.232673      0.143080      1.010277
H     10.62451     15.10445      7.64558         0.223205     -0.094414      0.797114
H     10.62451      5.87395     13.33282        -0.300185      0.080100     -0.697386
H     10.35389     15.10445     13.33282         0.129521     -0.290697     -0.696700
H      7.64558     10.35389      5.87395         0.813168     -0.174544      0.215256
H      7.64558     10.62451     15.10445         0.235379      0.037745     -0.059108
H     13.33282     10.62451      5.87395        -0.708181     -0.005711      0.165936
H     13.33282     10.35389     15.10445        -0.313479     -0.095144     -0.038195
H      5.87395      7.64558     10.35389         0.102637      0.408024      0.002368
H     15.10445      7.64558     10.62451        -0.096831      0.742545      0.293164
H      5.87395     13.33282     10.62451         0.004110     -0.804240      0.088593
H     15.10445     13.33282     10.35389        -0.222277     -0.403752      0.044596
H      5.87395     10.35389      7.64558         0.278776      0.063172      0.354369
H     15.10445     10.62451      7.64558        -0.154660     -0.123667      0.510549
H      5.87395     10.62451     13.33282        -0.009613      0.362609     -0.701797
H     15.10445     10.35389     13.33282         0.151468     -0.407662     -0.879918
H     10.35389      7.64558      5.87395        -0.015297      0.497179      0.340606
H     10.62451      7.64558     15.10445         0.230544      0.637439     -0.111245
H     10.62451     13.33282      5.87395         0.039712     -0.601579      0.184418
H     10.35389     13.33282     15.10445         0.081078     -0.382202     -0.117472
H      7.64558      5.87395     10.35389         0.434191      0.141566      0.050635
H      7.64558     15.10445     10.62451         0.385363     -0.130703      0.229456
H     13.33282      5.87395     10.62451        -0.305813      0.114854      0.000545
H     13.33282     15.10445     10.35389        -0.618570     -0.210576      0.203938
H     12.45634     12.45634     19.01126         0.256682      0.266857     -0.226080
H     19.01126     19.01126     19.01126        -0.249520     -0.269188     -0.235238
H     19.01126     12.45634     12.45634        -0.238883      0.266959      0.244674
H     12.45634     19.01126     12.45634         0.296970     -0.220726      0.236845
C     10.35284      5.61067      6.59456         0.404045     -0.320005     -1.172179
C     10.62556     15.36773      6.59456        -0.278010      0.677064     -0.624942
C     10.62556      5.61067     14.38384         0.337324     -0.280261      0.731290
C     10.35284     15.36773     14.38384        -0.187371      0.332041      0.847265
C      6.59456     10.35284      5.61067        -1.062010     -0.018920     -0.192054
C      6.59456     10.62556     15.36773        -0.645933      0.062674      0.355055
C     14.38384     10.62556      5.61067         1.282622     -0.067885     -0.601527
C     14.38384     10.35284     15.36773         0.312938     -0.116104      0.404852
C      5.61067      6.59456     10.35284        -0.294167     -0.599663     -0.006009
C     15.36773      6.59456     10.62556         0.329282     -0.955783     -0.231909
C      5.61067     14.38384     10.62556        -0.212059      0.928368     -0.287671
C     15.36773     14.38384     10.35284         0.432273      0.837862     -0.092124
C      5.61067     10.35284      6.59456        -0.267281     -0.116316     -0.515533
C     15.36773     10.62556      6.59456         0.238181      0.113653     -0.451598
C      5.61067     10.62556     14.38384        -0.311990     -0.147801      1.209456
C     15.36773     10.35284     14.38384         0.179737      0.113707      1.193390
C     10.35284      6.59456      5.61067        -0.029795     -0.607733     -0.412929
C     10.62556      6.59456     15.36773        -0.018679     -0.764281      0.371060
C     10.62556     14.38384      5.61067        -0.449809      0.382088     -0.766512
C     10.35284     14.38384     15.36773        -0.178979      0.669303      0.446069
C      6.59456      5.61067     10.35284        -0.553461     -0.323967      0.053639
C      6.59456     15.36773     10.62556        -0.256757      0.498313      0.078587
C     14.38384      5.61067     10.62556         0.343880     -0.372760      0.082821
C     14.38384     15.36773     10.35284         1.014522      0.336988     -0.090870
C     10.40319      3.19606      7.29314        -0.006270      0.833561     -0.362701
C     10.35913      4.25547      6.23373         0.041228     -0.396039      0.301136
C      0.08601      7.29314      7.29314        -0.009740     -0.556011     -0.506810
C      0.13007      6.23373      6.23373        -0.080725      0.794982      0.060647
C      0.08601      3.19606      3.19606        -0.015599      0.526606      0.278778
C      0.13007      4.25547      4.25547         0.072212     -0.218552     -0.608867
C     10.40319      7.29314      3.19606        -0.040105     -1.120451      0.843042
C     10.35913      6.23373      4.25547        -0.025939      0.366615     -0.219791
C      7.29314     10.40319      3.19606        -0.955839     -0.052895      0.309710
C      6.23373     10.35913      4.25547         0.357342      0.102613     -0.515305
C      7.29314      0.08601      7.29314        -0.807322      0.016068     -0.387742
C      6.23373      0.13007      6.23373         0.162659      0.067857      0.117293
C      3.19606      0.08601      3.19606         0.532506      0.001300      0.200402
C      4.25547      0.13007      4.25547        -0.204563     -0.085903     -0.226296
C      3.19606     10.40319      7.29314         0.487075     -0.036663     -0.997518
C      4.25547     10.35913      6.23373        -0.156001     -0.011524      0.159721
C      3.19606      7.29314     10.40319         0.705372     -0.433429      0.010934
C      4.25547      6.23373     10.35913        -0.110198      0.165022      0.000197
C      7.29314      7.29314      0.08601        -0.384192     -0.304228     -0.024251
C      6.23373      6.23373      0.13007         0.260023      0.127177     -0.159973
C      3.19606      3.19606      0.08601         0.324295      0.566927     -0.019811
C      4.25547      4.25547      0.13007        -0.435663     -0.290141      0.000259
C      7.29314      3.19606     10.40319        -0.269074      0.631830      0.006163
C      6.23373      4.25547     10.35913         0.024923     -0.183042      0.016071
O     10.43466      3.58206      8.50569        -0.035190      0.056713      0.260040
O     10.54374     17.39634      8.50569         0.065122     -0.058082      0.477256
O     10.54374      3.58206     12.47271         0.037263      0.143525     -0.465742
O     10.43466     17.39634     12.47271         0.069244     -0.026448     -0.496351
O      8.50569     10.43466      3.58206         0.657323     -0.082513      0.065127
O      8.50569     10.54374     17.39634         0.793963      0.078893     -0.122173
O     12.47271     10.54374      3.58206        -0.522204      0.104901      0.175061
O     12.47271     10.43466     17.39634        -0.340998     -0.005028      0.047648
O      3.58206      8.50569     10.43466         0.011461      0.440993     -0.079338
O     17.39634      8.50569     10.54374        -0.108226      0.441870      0.039151
O      3.58206     12.47271     10.54374         0.136780     -0.615959     -0.006647
O     17.39634     12.47271     10.43466        -0.245215     -0.740489     -0.005820
O      3.58206     10.43466      8.50569         0.172253     -0.040834      0.817437
O     17.39634     10.54374      8.50569         0.006480      0.034616      0.321435
O      3.58206     10.54374     12.47271         0.019109      0.007334     -0.325113
O     17.39634     10.43466     12.47271        -0.034429      0.003822     -0.345453
O     10.43466      8.50569      3.58206        -0.086920      0.562234     -0.098754
O     10.54374      8.50569     17.39634         0.046005      0.630212     -0.091436
O     10.54374     12.47271      3.58206         0.088986     -0.506358      0.103867
O     10.43466     12.47271     17.39634        -0.053965     -0.800116     -0.288273
O      8.50569      3.58206     10.43466         0.363571      0.023811     -0.064096
O      8.50569     17.39634     10.54374         0.557063     -0.135791      0.053167
O     12.47271      3.58206     10.54374        -0.490051      0.124388      0.025013
O     12.47271     17.39634     10.43466        -0.622934     -0.093518      0.051123
O     11.90042     11.90042     19.56718        -0.267234     -0.279041      0.222836
O     19.56718     19.56718     19.56718         0.293098      0.310279      0.282749
O     19.56718     11.90042     11.90042         0.264357     -0.309950     -0.264970
O     11.90042     19.56718     11.90042        -0.313203      0.199399     -0.214544
O      9.45224      1.03696      9.45224        -0.124283      0.140984     -0.048270
O      1.03696      9.45224      9.45224         0.148912     -0.147122     -0.061092
O      1.03696      1.03696      1.03696         0.094081      0.105932      0.056153
O      9.45224      9.45224      1.03696        -0.110952     -0.147280      0.114653
Zr     10.48920      2.52580     10.48920         0.038182     -0.183972      0.183742
Zr     10.48920     18.45260     10.48920        -0.185714      0.240389     -0.378535
Zr     10.48920     10.48920      2.52580         0.151495      0.428719     -0.211908
Zr     10.48920     10.48920     18.45260        -0.000461     -0.228899      0.320157
Zr      2.52580     10.48920     10.48920        -0.345514      0.090207      0.288823
Zr     18.45260     10.48920     10.48920         0.214302     -0.148390     -0.015157
Pd      9.28894     14.39834      9.16228        -0.034141      0.160346     -0.059800
Pd      8.51411     13.65532     13.18416        -0.057476     -0.050317      0.152648
Pd     11.98835     14.40092      8.85211         0.027522     -0.003825      0.089492
Pd     12.47431     12.79448     10.85256        -0.022079      0.024751      0.027335
Pd     12.07074      7.12159     12.49905        -0.003592      0.098829     -0.079104
Pd     11.01040     15.13281     11.32163         0.031056     -0.001611     -0.049709
Pd      9.82840     12.79760     11.05709        -0.014539     -0.018999      0.129723
Pd     13.57979     12.34249      8.11959        -0.010384     -0.021591      0.012332
Pd     11.60965     11.70597      6.25588        -0.024544     -0.116120      0.127029
Pd      7.79941      8.18238      7.47824         0.029344      0.051592     -0.037381
Pd      8.73207     11.82358      6.85382         0.075400     -0.073503     -0.067177
Pd      9.99538      9.61556      8.19997        -0.020364      0.021984      0.001707
Pd      8.46094     14.50196      6.61757         0.106156      0.054431      0.045343
Pd     12.29423      9.22383      7.05332        -0.036103      0.005906     -0.157985
Pd      9.93836      9.69598      5.56091         0.010431      0.057436      0.012110
Pd      6.90596      9.36796     12.23105         0.026673      0.035917      0.110120
Pd     12.28507      6.67871      7.89486        -0.056065     -0.086092     -0.020056
Pd      5.82219     10.47788      9.85987        -0.035293      0.040278     -0.002889
Pd      7.54524      6.95792     13.20859         0.036541      0.018385     -0.020319
Ir     11.48044      9.65675     13.10038        -0.068263     -0.062459     -0.094095
Ir     13.34612      9.20074     11.46924        -0.046441     -0.121788      0.160387
Ir      9.17929      8.78101     13.98683         0.045838     -0.046386      0.027755
Ir     10.34631     10.71466     15.16071         0.009510     -0.003485      0.042858
Ir      7.22007     11.96541     11.52176        -0.020731     -0.026890     -0.014661
Ir     14.57729     11.10544     10.42189         0.051621      0.030674      0.061943
Ir     12.31026     10.49382      9.46737         0.022202      0.080090     -0.160981
Ir      8.91516     11.04493     12.97703        -0.116755     -0.118015     -0.008554
Ir     10.07205     10.03534     10.93035         0.037100      0.030584      0.012838
Ir     13.45540     11.38444     12.73220        -0.088168      0.067338     -0.103286
Ir     11.18535     12.18242     13.22556         0.117407      0.076362     -0.104650
Ir      8.30441     11.31815      9.35815        -0.049543     -0.008739      0.024262
Ir     11.50328      8.03069      9.99020         0.092582      0.017071     -0.064459
Ir      7.10692     13.20816      8.49886        -0.056180     -0.042691     -0.076382
Ir      9.42821      7.00633      9.21701        -0.134348      0.004438     -0.103621
Ir      7.96124      8.88387      9.97099         0.084030      0.001217     -0.012583
Ir     10.69165     12.14807      8.61828         0.047015     -0.076040      0.089293
Ir      9.50378      7.72357     11.69429        -0.074589     -0.001549      0.073144
Ir     13.85157      8.47016      9.07809        -0.014117      0.063458     -0.097507
