152
# total energy = -1109.60211240 eVH     10.35389      5.87395      7.64558        -0.359909     -0.854524      1.464174
H     10.62451     15.10445      7.64558         0.294060      0.061001      0.871571
H     10.62451      5.87395     13.33282        -0.093956     -1.320280     -1.729962
H     10.35389     15.10445     13.33282        -0.626139      0.565336     -0.491938
H      7.64558     10.35389      5.87395         0.497241     -0.498000      0.021922
H      7.64558     10.62451     15.10445         0.350925     -0.288118      0.066516
H     13.33282     10.62451      5.87395        -0.382761      0.382765     -0.004579
H     13.33282     10.35389     15.10445        -0.464154      0.263309      0.120300
H      5.87395      7.64558     10.35389         0.006366      0.314036      0.058606
H     15.10445      7.64558     10.62451         0.264098      0.371878      0.029901
H      5.87395     13.33282     10.62451        -0.313591     -0.418390      0.424122
H     15.10445     13.33282     10.35389         0.056840     -0.321333     -0.418577
H      5.87395     10.35389      7.64558        -0.171880     -0.402776      1.676905
H     15.10445     10.62451      7.64558         0.124530      0.190159      0.886796
H      5.87395     10.62451     13.33282        -0.110737     -0.275497     -1.145370
H     15.10445     10.35389     13.33282         0.420353      0.567231     -1.254404
H     10.35389      7.64558      5.87395        -0.362621      0.710310     -0.432436
H     10.62451      7.64558     15.10445        -0.027056      0.725292      0.305224
H     10.62451     13.33282      5.87395         0.828550     -1.244860     -0.300285
H     10.35389     13.33282     15.10445         0.266161     -0.487294      0.012349
H      7.64558      5.87395     10.35389         0.991498      0.057200     -0.098472
H      7.64558     15.10445     10.62451         2.117315      0.756896      0.286789
H     13.33282      5.87395     10.62451        -2.193161     -0.685969     -0.087800
H     13.33282     15.10445     10.35389        -0.842162     -0.063804     -0.267118
H     12.45634     12.45634     19.01126         0.268285      0.260401     -0.231567
H     19.01126     19.01126     19.01126        -0.267241     -0.249864     -0.240410
H     19.01126     12.45634     12.45634        -0.277991      0.292771      0.183598
H     12.45634     19.01126     12.45634         0.257536     -0.251371      0.237365
C     10.35284      5.61067      6.59456         0.077046     -0.284596     -1.979983
C     10.62556     15.36773      6.59456         0.197328      0.548655     -0.833930
C     10.62556      5.61067     14.38384         0.022014     -0.134492      2.154211
C     10.35284     15.36773     14.38384         0.150622      0.039463      1.919040
C      6.59456     10.35284      5.61067        -1.161650     -0.201011     -0.990744
C      6.59456     10.62556     15.36773        -0.606150     -0.138436      0.706303
C     14.38384     10.62556      5.61067         0.615752     -0.133903     -0.737881
C     14.38384     10.35284     15.36773         1.116116      0.137573      0.930884
C      5.61067      6.59456     10.35284        -0.980355     -0.632462     -0.080706
C     15.36773      6.59456     10.62556         1.818804     -0.140214      0.022197
C      5.61067     14.38384     10.62556        -1.430905      0.205577     -0.000677
C     15.36773     14.38384     10.35284         0.531852      0.275436     -0.029886
C      5.61067     10.35284      6.59456        -0.294714      0.409093     -1.895301
C     15.36773     10.62556      6.59456         0.318000      0.028928     -0.769470
C      5.61067     10.62556     14.38384        -0.454416      0.238532      1.565433
C     15.36773     10.35284     14.38384         0.144999     -0.390487      1.771352
C     10.35284      6.59456      5.61067        -0.168532     -1.544057     -1.145862
C     10.62556      6.59456     15.36773        -0.052089     -1.135108      1.251645
C     10.62556     14.38384      5.61067        -0.491838      2.022535     -0.633036
C     10.35284     14.38384     15.36773        -0.203538      1.627115      0.289423
C      6.59456      5.61067     10.35284        -1.038534     -0.296386      0.056247
C      6.59456     15.36773     10.62556        -1.570755      0.259018     -0.339889
C     14.38384      5.61067     10.62556         1.261600     -0.172270     -0.239602
C     14.38384     15.36773     10.35284         0.349874      0.195363      0.089097
C     10.40319      3.19606      7.29314         0.016344      0.309787     -0.138471
C     10.35913      4.25547      6.23373         0.054997     -0.365275      0.399431
C      0.08601      7.29314      7.29314        -0.049536     -0.372561     -0.432735
C      0.13007      6.23373      6.23373        -0.135121      0.826109      0.054377
C      0.08601      3.19606      3.19606        -0.126161      1.529957      0.171696
C      0.13007      4.25547      4.25547        -0.185945     -0.430787     -1.333289
C     10.40319      7.29314      3.19606         0.038809     -0.444854      0.085969
C     10.35913      6.23373      4.25547         0.180012      0.271238     -0.369176
C      7.29314     10.40319      3.19606        -1.773518      0.028282      0.247333
C      6.23373     10.35913      4.25547         0.509925      0.029607     -0.536921
C      7.29314      0.08601      7.29314        -0.382993      0.020658     -0.276141
C      6.23373      0.13007      6.23373         0.408428     -0.000051      0.301929
C      3.19606      0.08601      3.19606         0.586648      0.014582      0.331497
C      4.25547      0.13007      4.25547        -0.418638     -0.006195     -0.438345
C      3.19606     10.40319      7.29314         0.374373      0.055735     -0.449685
C      4.25547     10.35913      6.23373        -0.725417      0.109194      0.437530
C      3.19606      7.29314     10.40319         0.401184     -0.379873      0.002567
C      4.25547      6.23373     10.35913        -0.022653      0.671395      0.102612
C      7.29314      7.29314      0.08601        -0.645714     -0.395834     -0.029423
C      6.23373      6.23373      0.13007         0.133823      1.315766      0.069042
C      3.19606      3.19606      0.08601         0.732229      0.422816     -0.009310
C      4.25547      4.25547      0.13007        -0.628329     -1.213823     -0.089463
C      7.29314      3.19606     10.40319        -0.375048      0.358458      0.001693
C      6.23373      4.25547     10.35913         0.555322     -0.281896      0.204013
O     10.43466      3.58206      8.50569        -0.044529      0.197249      0.285453
O     10.54374     17.39634      8.50569         0.042809     -0.212573      0.471469
O     10.54374      3.58206     12.47271         0.097898     -0.022193     -0.068751
O     10.43466     17.39634     12.47271        -0.038375     -0.110133     -0.230305
O      8.50569     10.43466      3.58206         0.938556      0.193398      0.412358
O      8.50569     10.54374     17.39634         0.560496      0.069292     -0.210896
O     12.47271     10.54374      3.58206        -0.468455     -0.005463      0.180200
O     12.47271     10.43466     17.39634        -0.510875     -0.070817     -0.180496
O      3.58206      8.50569     10.43466         0.154090      0.539571     -0.046091
O     17.39634      8.50569     10.54374        -0.172473      0.629767      0.047854
O      3.58206     12.47271     10.54374         0.155339     -0.613866      0.026082
O     17.39634     12.47271     10.43466        -0.182806     -0.559667     -0.006761
O      3.58206     10.43466      8.50569         0.226547     -0.087037      0.452531
O     17.39634     10.54374      8.50569        -0.161263      0.029281      0.429617
O      3.58206     10.54374     12.47271         0.166787     -0.006301     -0.412306
O     17.39634     10.43466     12.47271         0.088965     -0.059708     -0.037604
O     10.43466      8.50569      3.58206        -0.005524      0.347532      0.187390
O     10.54374      8.50569     17.39634         0.077156      0.481596     -0.207988
O     10.54374     12.47271      3.58206        -0.228925     -0.936839      0.346683
O     10.43466     12.47271     17.39634        -0.074541     -0.443120     -0.240057
O      8.50569      3.58206     10.43466         0.508418      0.182181     -0.018728
O      8.50569     17.39634     10.54374         0.589053     -0.205005      0.033571
O     12.47271      3.58206     10.54374        -0.688994      0.267618      0.041018
O     12.47271     17.39634     10.43466        -0.503813     -0.182772     -0.040607
O     11.90042     11.90042     19.56718        -0.327781     -0.308355      0.258440
O     19.56718     19.56718     19.56718         0.329277      0.304142      0.286566
O     19.56718     11.90042     11.90042         0.269578     -0.296285     -0.130346
O     11.90042     19.56718     11.90042        -0.316824      0.297265     -0.242113
O      9.45224      1.03696      9.45224        -0.052775      0.066393     -0.041527
O      1.03696      9.45224      9.45224         0.040721     -0.065018     -0.073199
O      1.03696      1.03696      1.03696         0.050981      0.122525      0.112652
O      9.45224      9.45224      1.03696        -0.127150     -0.072776      0.129178
Zr     10.48920      2.52580     10.48920         0.096001     -0.140661     -0.154945
Zr     10.48920     18.45260     10.48920        -0.027214      0.169694     -0.028774
Zr     10.48920     10.48920      2.52580         0.466898     -0.283167     -0.241747
Zr     10.48920     10.48920     18.45260        -0.033462     -0.061679      0.202975
Zr      2.52580     10.48920     10.48920        -0.080198      0.121046     -0.004880
Zr     18.45260     10.48920     10.48920         0.135886     -0.110509     -0.315213
Ir     11.99776     12.42797     10.45829         0.072159     -0.042433     -0.055198
Ir     10.71721      7.34018     10.40923         0.121334      0.030365      0.029364
Ir      8.38920      7.47466     11.69840         0.104852     -0.005165     -0.036844
Ir      7.26926     11.78344      7.72753         0.135029     -0.019105     -0.048131
Ir     11.45704     12.04390      7.14270         0.050641      0.051400      0.007037
Ir     13.43637      8.89297      7.60302        -0.215113     -0.196108      0.060307
Ir     12.42347     13.90380      8.42358         0.104690     -0.028712      0.010563
Ir      9.59749     11.26928      5.57214        -0.013826      0.050060     -0.009012
Ir      9.04057     13.43763      7.10329         0.032082      0.065500     -0.041832
Ir      9.03963      9.71691      7.59116         0.090042     -0.030810      0.017813
Ir     12.95375      7.19768     11.84384         0.059445     -0.132847      0.127731
Ir     13.01184      6.99305      9.11410         0.235713     -0.222681      0.161929
Ir     10.67454      7.56117     12.92918         0.066649      0.031249      0.009025
Ir     13.46988     11.45998      8.69277         0.072783     -0.036529      0.016391
Ir     11.31175      9.62463      6.30938        -0.019277      0.091333     -0.065261
Ir      6.76062      9.45646      9.11809         0.141324     -0.098335     -0.100970
Ir     14.14180     11.45601     11.47244        -0.035166     -0.110586      0.023827
Ir     11.41225      9.82421      8.96687         0.027786      0.150197      0.002385
Ir      9.12125      9.58007     10.30847         0.081626      0.034715     -0.012597
Ir     13.63335      9.34653     10.17758        -0.024707     -0.101776     -0.014844
Ir     13.61983      9.32403     12.81991        -0.000255     -0.101921      0.061708
Ir     11.40027      9.63342     11.59581         0.024101      0.064482      0.007061
Ir      9.78965     11.78717      9.02549        -0.022135      0.060769     -0.008871
Ir      8.44363      7.53584      8.97412         0.311401     -0.044241     -0.074056
Ir     10.80156      7.61581      7.92848         0.456433      0.053673     -0.017309
Ir      9.00869      9.55602     13.06252         0.037095      0.024611     -0.031930
Ir      7.55270     14.05282      9.00595         0.043974     -0.011587     -0.008831
Ir     10.92729     13.98777     12.06661         0.032418      0.086311     -0.052866
Ir     10.12456     14.18462      9.59130         0.061510      0.076186     -0.026954
Ir      9.71509     11.69686     11.74471        -0.007624      0.011975     -0.010052
Ir      7.48653     11.76110     10.29370         0.001393     -0.021971     -0.034199
Ir      8.40775     13.85932     11.67513         0.013946      0.014615     -0.044520
Ir      7.49895     11.80537     12.96680         0.000594      0.005736     -0.044054
Ir      9.82217     11.64396     14.32880        -0.038561      0.025895     -0.011843
Ir     13.47294     13.83640     12.17118         0.062969     -0.048700     -0.054862
Ir     12.09403     11.84702     13.03178        -0.032474      0.074482      0.018393
Ir     11.42635      9.69855     14.24618         0.012262      0.067458      0.002419
Ir      6.84726      9.62044     11.63786         0.081465      0.005086     -0.050435
