152
# total energy = -1022.65432969 eVH     10.35389      5.87395      7.64558         0.450631      0.014186      0.956904
H     10.62451     15.10445      7.64558         0.004240     -0.005209      0.697151
H     10.62451      5.87395     13.33282         0.134172      0.112485     -0.612685
H     10.35389     15.10445     13.33282        -0.273313     -0.069227     -0.552047
H      7.64558     10.35389      5.87395         0.354732     -0.057927      0.196011
H      7.64558     10.62451     15.10445         0.620272     -0.164631     -0.134998
H     13.33282     10.62451      5.87395        -0.970187     -0.436425      0.099107
H     13.33282     10.35389     15.10445        -0.481812     -0.081560     -0.050364
H      5.87395      7.64558     10.35389         0.086923      1.200860     -0.093231
H     15.10445      7.64558     10.62451        -0.170533      0.397406     -0.077874
H      5.87395     13.33282     10.62451         0.143605     -0.391489     -0.068402
H     15.10445     13.33282     10.35389        -0.083951     -0.969760     -0.281286
H      5.87395     10.35389      7.64558         0.121888      0.006419      0.443189
H     15.10445     10.62451      7.64558         0.143340     -0.193280      0.751403
H      5.87395     10.62451     13.33282         0.271480     -0.039383     -0.410621
H     15.10445     10.35389     13.33282        -0.152517      0.034555     -0.631572
H     10.35389      7.64558      5.87395         0.157307      0.848995      0.100018
H     10.62451      7.64558     15.10445         0.018114      0.649426     -0.128954
H     10.62451     13.33282      5.87395         0.209142     -0.581489      0.181275
H     10.35389     13.33282     15.10445        -0.224612     -0.896158     -0.114110
H      7.64558      5.87395     10.35389         0.522343      0.030633     -0.163645
H      7.64558     15.10445     10.62451         0.919197     -0.185163      0.310082
H     13.33282      5.87395     10.62451        -0.427639      0.191019     -0.067265
H     13.33282     15.10445     10.35389        -0.992596     -0.069217      0.254671
H     12.45634     12.45634     19.01126         0.270131      0.258346     -0.221723
H     19.01126     19.01126     19.01126        -0.248642     -0.235302     -0.261681
H     19.01126     12.45634     12.45634        -0.244324      0.271338      0.236080
H     12.45634     19.01126     12.45634         0.207391     -0.284901      0.255534
C     10.35284      5.61067      6.59456        -0.098713     -0.433810     -0.565327
C     10.62556     15.36773      6.59456         0.013831      0.336290     -1.010555
C     10.62556      5.61067     14.38384        -0.010897     -0.267128      0.732405
C     10.35284     15.36773     14.38384         0.213422      0.733614      0.072251
C      6.59456     10.35284      5.61067        -0.498823     -0.044100     -0.222066
C      6.59456     10.62556     15.36773        -0.810846      0.143175      0.376731
C     14.38384     10.62556      5.61067         0.908062      0.285512     -0.338386
C     14.38384     10.35284     15.36773         0.753411     -0.124175      0.429323
C      5.61067      6.59456     10.35284        -0.408516     -0.883319      0.214777
C     15.36773      6.59456     10.62556         0.208725     -0.483076      0.040643
C      5.61067     14.38384     10.62556        -0.260183      0.381388     -0.014195
C     15.36773     14.38384     10.35284         0.344716      0.249812      0.254214
C      5.61067     10.35284      6.59456        -0.318779      0.003831     -0.860916
C     15.36773     10.62556      6.59456         0.536419     -0.139680     -1.223849
C      5.61067     10.62556     14.38384        -0.495539      0.007227      1.019159
C     15.36773     10.35284     14.38384         0.544935     -0.186375      1.281378
C     10.35284      6.59456      5.61067        -0.026395     -0.972513     -0.685099
C     10.62556      6.59456     15.36773         0.050552     -0.798857      0.349581
C     10.62556     14.38384      5.61067        -0.007453      1.357059     -0.732661
C     10.35284     14.38384     15.36773         0.069391      0.610974      0.633786
C      6.59456      5.61067     10.35284        -0.216731     -0.905634      0.129022
C      6.59456     15.36773     10.62556        -1.749462      0.491879      0.033336
C     14.38384      5.61067     10.62556         0.565235     -0.224198     -0.003000
C     14.38384     15.36773     10.35284         0.345664      0.500786     -0.218249
C     10.40319      3.19606      7.29314         0.018883      0.952506     -0.240240
C     10.35913      4.25547      6.23373        -0.045972     -0.315726      0.678625
C      0.08601      7.29314      7.29314        -0.010500     -0.224336     -0.459217
C      0.13007      6.23373      6.23373        -0.008867      0.133357      0.187816
C      0.08601      3.19606      3.19606        -0.021137      0.695064      0.160122
C      0.13007      4.25547      4.25547        -0.098188     -0.191932     -0.169066
C     10.40319      7.29314      3.19606        -0.001130     -0.665301      0.499283
C     10.35913      6.23373      4.25547         0.003134      0.547691     -0.324680
C      7.29314     10.40319      3.19606        -0.393182      0.019214      0.850957
C      6.23373     10.35913      4.25547         0.228635      0.004405     -0.161278
C      7.29314      0.08601      7.29314        -0.304520     -0.049823     -0.247075
C      6.23373      0.13007      6.23373         0.264945     -0.072254      0.266527
C      3.19606      0.08601      3.19606         0.366682     -0.055677      1.322120
C      4.25547      0.13007      4.25547        -0.152352     -0.016015     -0.437216
C      3.19606     10.40319      7.29314         0.730229      0.016765     -0.265164
C      4.25547     10.35913      6.23373        -0.129544      0.036832      0.120967
C      3.19606      7.29314     10.40319         0.557017     -1.259962      0.037453
C      4.25547      6.23373     10.35913        -0.744396      0.758416      0.031650
C      7.29314      7.29314      0.08601        -0.645158     -0.175591     -0.025051
C      6.23373      6.23373      0.13007         0.170871      0.267137     -0.015468
C      3.19606      3.19606      0.08601         0.249488      0.257222     -0.020512
C      4.25547      4.25547      0.13007        -0.053616     -0.034488      0.017249
C      7.29314      3.19606     10.40319        -0.363974      0.729030      0.025906
C      6.23373      4.25547     10.35913         0.785095     -0.192876      0.029314
O     10.43466      3.58206      8.50569        -0.053867      0.022859      0.298698
O     10.54374     17.39634      8.50569        -0.019557     -0.190761      0.607822
O     10.54374      3.58206     12.47271         0.063090      0.050536     -0.300703
O     10.43466     17.39634     12.47271        -0.025275     -0.123761     -0.564209
O      8.50569     10.43466      3.58206         0.405410     -0.010881     -0.003439
O      8.50569     10.54374     17.39634         0.466628      0.057237     -0.143973
O     12.47271     10.54374      3.58206        -0.241455      0.062824     -0.102341
O     12.47271     10.43466     17.39634        -0.849230      0.024398     -0.212704
O      3.58206      8.50569     10.43466         0.033297      0.900639      0.041714
O     17.39634      8.50569     10.54374        -0.036127      0.347203      0.079772
O      3.58206     12.47271     10.54374         0.066547     -0.425253      0.059894
O     17.39634     12.47271     10.43466        -0.161862     -0.734633      0.013256
O      3.58206     10.43466      8.50569        -0.055666     -0.061672      0.229766
O     17.39634     10.54374      8.50569        -0.133505      0.042519      0.446265
O      3.58206     10.54374     12.47271        -0.045238     -0.059097     -0.866813
O     17.39634     10.43466     12.47271        -0.189867      0.038306     -0.749331
O     10.43466      8.50569      3.58206         0.032412      0.683125      0.195931
O     10.54374      8.50569     17.39634         0.053758      0.408334     -0.074113
O     10.54374     12.47271      3.58206        -0.033768     -0.740698      0.246554
O     10.43466     12.47271     17.39634         0.056883     -0.854246     -0.278972
O      8.50569      3.58206     10.43466         0.500072      0.090584     -0.041045
O      8.50569     17.39634     10.54374         0.652519     -0.241623     -0.057846
O     12.47271      3.58206     10.54374        -0.501062      0.160523      0.042034
O     12.47271     17.39634     10.43466        -0.494341     -0.033294     -0.040851
O     11.90042     11.90042     19.56718        -0.306292     -0.310835      0.262044
O     19.56718     19.56718     19.56718         0.290652      0.274331      0.321024
O     19.56718     11.90042     11.90042         0.283097     -0.327837     -0.237151
O     11.90042     19.56718     11.90042        -0.221705      0.295057     -0.241839
O      9.45224      1.03696      9.45224        -0.071906      0.057991     -0.064069
O      1.03696      9.45224      9.45224         0.068024     -0.140448     -0.050905
O      1.03696      1.03696      1.03696         0.047053      0.031270      0.188587
O      9.45224      9.45224      1.03696        -0.036117     -0.085022      0.129967
Zr     10.48920      2.52580     10.48920        -0.002875     -0.077055     -0.030728
Zr     10.48920     18.45260     10.48920         0.039650      0.289607     -0.066778
Zr     10.48920     10.48920      2.52580        -0.085566     -0.025439     -0.373855
Zr     10.48920     10.48920     18.45260        -0.145062     -0.186152      0.307116
Zr      2.52580     10.48920     10.48920        -0.324139      0.332579     -0.478312
Zr     18.45260     10.48920     10.48920         0.219761      0.037568     -0.278212
Pd      9.05512     10.28375     13.40513        -0.001930     -0.006445     -0.037682
Pd     10.63598      9.72343     11.13238        -0.035925      0.025665     -0.021386
Pd     13.76476      8.54494     12.75760        -0.005326     -0.000877     -0.034488
Pd     11.00732     11.11100     15.07665        -0.004141     -0.009022     -0.023331
Pd     12.83644     11.18484     13.06216         0.021471      0.005026     -0.001468
Pd     14.97016     10.87979     11.36289        -0.003166      0.020132     -0.002011
Pd      6.68642      7.41187     12.31742        -0.012775      0.003705      0.008533
Pd      9.23001      7.27648     10.21786        -0.014629     -0.003191     -0.019692
Pd      9.26115      7.64479     12.87307        -0.001462     -0.007689     -0.027448
Pd     11.71239      7.26532     11.55989        -0.014680      0.027963     -0.056951
Pd     11.36485      7.96099      8.91983        -0.002011      0.007788     -0.036930
Pd      7.23330     11.82965     12.02044         0.014168      0.010445     -0.015541
Pd      8.88996     14.65170      9.33441        -0.003121      0.004245      0.001166
Pd      8.42730     12.70117     14.34307        -0.000548     -0.015076     -0.015778
Pd     13.31524     13.97440      8.65383         0.061140      0.041311     -0.028918
Pd     10.83023     13.18992      8.44983         0.043155      0.060524      0.018377
Pd     14.04882     11.42732      8.95455         0.038971      0.042255     -0.009633
Pd      8.62759     14.09306     12.08673         0.004570      0.001231      0.002944
Pd     12.23862     13.76074     13.99964         0.006785      0.002842      0.016867
Pd     11.14127     14.39337     11.06254         0.009647      0.010923      0.024142
Pd     14.07497     13.49951     12.16686        -0.002378      0.026917      0.006939
Pd     12.30361     12.11637     10.69604         0.010161      0.027857     -0.011397
Pd     12.52523     12.10678      6.77191         0.052098      0.084611     -0.014552
Pd     13.57498      8.92639      7.89543        -0.007617     -0.000737      0.020997
Pd      6.87934      8.44266      8.91496        -0.005772      0.013315     -0.036558
Pd      5.52204      9.87372     11.33420        -0.010727      0.013956     -0.007967
Pd      9.01956      9.86286      8.20897         0.051178     -0.057197      0.062282
Pd      8.92097      7.32594      7.54625        -0.045682     -0.038739     -0.011705
Pd      9.46739     12.02315     10.44158         0.028301      0.031946      0.007846
Pd     11.43903     10.61443      8.71933        -0.006021      0.027385     -0.062656
Pd     11.11415      9.35706      6.46487         0.051535     -0.035968     -0.005974
Pd      9.72460     11.68120      6.29471         0.064111     -0.067401      0.039540
Ir     11.37258      9.08622     13.49152        -0.007385      0.006456     -0.044123
Ir     13.07885      9.39248     10.43045        -0.012380      0.031333     -0.018099
Ir     10.53463     12.36199     12.70906         0.002186      0.002158     -0.006659
Ir      7.04466     10.97325      9.57463         0.041967      0.028684     -0.054539
Ir      8.26188     12.44813      8.21042         0.026499     -0.010569      0.014579
Ir      8.09712      9.34542     11.15612         0.006114     -0.041437      0.002725
