152
# total energy = -1061.43661090 eVH     10.35389      5.87395      7.64558        -0.139879      0.119471      0.994155
H     10.62451     15.10445      7.64558         0.355342     -0.093180      0.789127
H     10.62451      5.87395     13.33282        -0.120151      0.087784     -0.483167
H     10.35389     15.10445     13.33282         0.087860     -0.188211     -0.391342
H      7.64558     10.35389      5.87395         0.916913      0.151208      0.210452
H      7.64558     10.62451     15.10445         0.206590     -0.020914     -0.065194
H     13.33282     10.62451      5.87395        -0.643830     -0.006799      0.167104
H     13.33282     10.35389     15.10445        -0.324423     -0.069511     -0.062795
H      5.87395      7.64558     10.35389         0.138388      0.353667     -0.065857
H     15.10445      7.64558     10.62451        -0.136066      0.510457      0.210030
H      5.87395     13.33282     10.62451         0.121573     -0.591826      0.063201
H     15.10445     13.33282     10.35389        -0.233865     -0.426669      0.089911
H      5.87395     10.35389      7.64558         0.170450      0.224992      0.366951
H     15.10445     10.62451      7.64558        -0.146067     -0.335773      0.697212
H      5.87395     10.62451     13.33282         0.036436      0.119362     -0.705425
H     15.10445     10.35389     13.33282         0.091277     -0.271742     -0.737889
H     10.35389      7.64558      5.87395        -0.109057      0.433015      0.236591
H     10.62451      7.64558     15.10445         0.387806      0.632923     -0.110218
H     10.62451     13.33282      5.87395         0.159523     -0.584666      0.104196
H     10.35389     13.33282     15.10445         0.217283     -0.735335     -0.075433
H      7.64558      5.87395     10.35389         0.473650      0.153433     -0.135625
H      7.64558     15.10445     10.62451         0.419003     -0.161858      0.381343
H     13.33282      5.87395     10.62451        -0.376968      0.157729     -0.071010
H     13.33282     15.10445     10.35389        -0.562285     -0.278330      0.118593
H     12.45634     12.45634     19.01126         0.234565      0.264836     -0.245265
H     19.01126     19.01126     19.01126        -0.260796     -0.261339     -0.227820
H     19.01126     12.45634     12.45634        -0.232995      0.271960      0.240089
H     12.45634     19.01126     12.45634         0.278472     -0.211239      0.253890
C     10.35284      5.61067      6.59456         0.283539     -0.289366     -0.833305
C     10.62556     15.36773      6.59456        -0.210466      0.641872     -0.259639
C     10.62556      5.61067     14.38384         0.263886     -0.303575      0.510055
C     10.35284     15.36773     14.38384        -0.115788      0.265928      0.254588
C      6.59456     10.35284      5.61067        -0.888275     -0.122077     -0.220452
C      6.59456     10.62556     15.36773        -0.526550      0.048792      0.345307
C     14.38384     10.62556      5.61067         0.856896     -0.045407     -0.619946
C     14.38384     10.35284     15.36773         0.271920     -0.087016      0.370626
C      5.61067      6.59456     10.35284        -0.390897     -0.366634      0.063277
C     15.36773      6.59456     10.62556         0.286548     -0.591824     -0.101773
C      5.61067     14.38384     10.62556        -0.156406      0.537693     -0.322279
C     15.36773     14.38384     10.35284         0.406083      0.818908     -0.100985
C      5.61067     10.35284      6.59456        -0.280508     -0.137458     -0.121179
C     15.36773     10.62556      6.59456         0.229240      0.273803     -0.558920
C      5.61067     10.62556     14.38384        -0.343436     -0.027142      1.198222
C     15.36773     10.35284     14.38384         0.294671     -0.052133      1.003069
C     10.35284      6.59456      5.61067         0.076556     -0.283551     -0.475370
C     10.62556      6.59456     15.36773        -0.000474     -0.817318      0.209227
C     10.62556     14.38384      5.61067        -0.392991      0.082070     -0.848612
C     10.35284     14.38384     15.36773        -0.248301      0.896193      0.242759
C      6.59456      5.61067     10.35284        -0.362189     -0.276909      0.240533
C      6.59456     15.36773     10.62556        -0.427902      0.558911     -0.004028
C     14.38384      5.61067     10.62556         0.450322     -0.336984      0.061970
C     14.38384     15.36773     10.35284         0.914723      0.264160     -0.055667
C     10.40319      3.19606      7.29314         0.004926      0.556615     -0.310513
C     10.35913      4.25547      6.23373        -0.004905     -0.504710      0.435080
C      0.08601      7.29314      7.29314        -0.012989     -0.899792     -0.534342
C      0.13007      6.23373      6.23373        -0.162501      0.869119      0.142012
C      0.08601      3.19606      3.19606        -0.012966      0.376572      0.380338
C      0.13007      4.25547      4.25547         0.057473     -0.185714     -0.619168
C     10.40319      7.29314      3.19606        -0.048392     -1.096396      0.754208
C     10.35913      6.23373      4.25547         0.011229      0.335384     -0.195494
C      7.29314     10.40319      3.19606        -1.190604     -0.078902      0.331273
C      6.23373     10.35913      4.25547         0.276101      0.028579     -0.665183
C      7.29314      0.08601      7.29314        -0.862238     -0.003990     -0.410779
C      6.23373      0.13007      6.23373         0.298771      0.048978      0.131787
C      3.19606      0.08601      3.19606         0.323630     -0.001528      0.419806
C      4.25547      0.13007      4.25547        -0.286330     -0.039900     -0.171822
C      3.19606     10.40319      7.29314         0.506485     -0.044668     -1.004174
C      4.25547     10.35913      6.23373        -0.297765     -0.062040      0.105082
C      3.19606      7.29314     10.40319         1.037420     -0.487183      0.003079
C      4.25547      6.23373     10.35913        -0.172551      0.167792     -0.000008
C      7.29314      7.29314      0.08601        -0.449840     -0.279478     -0.007464
C      6.23373      6.23373      0.13007         0.214673      0.098332     -0.139486
C      3.19606      3.19606      0.08601         0.345142      0.789970     -0.009085
C      4.25547      4.25547      0.13007        -0.470553     -0.195306      0.048365
C      7.29314      3.19606     10.40319        -0.202951      0.523971      0.023561
C      6.23373      4.25547     10.35913         0.007854     -0.334229      0.037468
O     10.43466      3.58206      8.50569        -0.022935      0.134158      0.375152
O     10.54374     17.39634      8.50569         0.048185      0.065310      0.328885
O     10.54374      3.58206     12.47271         0.041820      0.200444     -0.572014
O     10.43466     17.39634     12.47271         0.025621      0.002118     -0.422886
O      8.50569     10.43466      3.58206         0.755409     -0.071344      0.041300
O      8.50569     10.54374     17.39634         0.867983      0.023255     -0.159473
O     12.47271     10.54374      3.58206        -0.347800      0.039730      0.073865
O     12.47271     10.43466     17.39634        -0.384707     -0.034031      0.038685
O      3.58206      8.50569     10.43466        -0.085209      0.312466     -0.077266
O     17.39634      8.50569     10.54374        -0.110924      0.443342      0.038890
O      3.58206     12.47271     10.54374         0.138477     -0.775881     -0.012125
O     17.39634     12.47271     10.43466        -0.244312     -0.647022     -0.013960
O      3.58206     10.43466      8.50569         0.123431     -0.039575      0.782239
O     17.39634     10.54374      8.50569         0.015302      0.040099      0.318444
O      3.58206     10.54374     12.47271         0.069424      0.017937     -0.461376
O     17.39634     10.43466     12.47271         0.021174      0.016061     -0.269907
O     10.43466      8.50569      3.58206        -0.065671      0.608576     -0.056453
O     10.54374      8.50569     17.39634         0.021840      0.902823     -0.214087
O     10.54374     12.47271      3.58206         0.063334     -0.368573      0.086651
O     10.43466     12.47271     17.39634        -0.056959     -0.637681     -0.195184
O      8.50569      3.58206     10.43466         0.342348      0.075203     -0.051779
O      8.50569     17.39634     10.54374         0.528737     -0.146713     -0.001120
O     12.47271      3.58206     10.54374        -0.380915      0.067593      0.033392
O     12.47271     17.39634     10.43466        -0.801266     -0.124639      0.056586
O     11.90042     11.90042     19.56718        -0.248635     -0.282463      0.236123
O     19.56718     19.56718     19.56718         0.295921      0.297069      0.246978
O     19.56718     11.90042     11.90042         0.231236     -0.302135     -0.280681
O     11.90042     19.56718     11.90042        -0.275564      0.180800     -0.267188
O      9.45224      1.03696      9.45224        -0.116464      0.100253     -0.081244
O      1.03696      9.45224      9.45224         0.139751     -0.141462     -0.169705
O      1.03696      1.03696      1.03696         0.131446      0.199032      0.002757
O      9.45224      9.45224      1.03696        -0.209663     -0.158003      0.047210
Zr     10.48920      2.52580     10.48920         0.009265     -0.235950      0.153504
Zr     10.48920     18.45260     10.48920        -0.301243      0.283818     -0.174661
Zr     10.48920     10.48920      2.52580         0.317670      0.423045     -0.222617
Zr     10.48920     10.48920     18.45260         0.015996      0.013361      0.484034
Zr      2.52580     10.48920     10.48920        -0.550812      0.053619      0.323686
Zr     18.45260     10.48920     10.48920         0.273789     -0.158485      0.012435
Pd      9.13424     14.55968      9.20901        -0.008405      0.020310      0.013270
Pd      8.42584     13.23367     13.81117         0.010201      0.007438      0.028815
Pd     12.11899     14.12860      8.65663        -0.022579     -0.015341      0.029181
Pd     12.27534     12.75605     10.89653         0.003613      0.003407      0.027798
Pd     11.81857      7.08579     11.97893         0.000761     -0.012296     -0.003801
Pd     11.11006     15.31806     10.87539         0.025379     -0.011019      0.032550
Pd      9.64154     13.14009     11.44222        -0.014672     -0.009131     -0.061148
Pd     14.02955     12.40375      8.05194         0.010382      0.002940     -0.042153
Pd     11.60530     11.75912      6.78386         0.039092     -0.020827     -0.005609
Pd      7.53679      8.53035      7.20178        -0.036755      0.026618     -0.017120
Pd      8.66958     11.99013      6.92308        -0.029033      0.047485     -0.021488
Pd      9.81543      9.85380      8.03818        -0.024454      0.000357      0.011861
Pd      8.48693     14.63832      6.55845         0.014649      0.014599      0.000347
Pd     12.12637      9.06431      6.87580        -0.036189     -0.012882      0.008229
Pd      9.96677      9.98040      5.42740         0.004438      0.008116     -0.028202
Pd      6.93832      9.19386     12.18521        -0.028263      0.046914      0.009283
Pd     12.44394      6.53746      7.71351        -0.016711      0.006974     -0.001648
Pd      5.59614     10.62737     10.11680         0.008604      0.006365     -0.021274
Pd      7.62305      6.64447     12.73664        -0.020308      0.003967      0.009058
Ir     11.30177      9.55957     12.89018         0.016226     -0.025136      0.003610
Ir     13.10346      9.23339     11.15428         0.031544     -0.022281     -0.047998
Ir      9.16566      8.43635     13.78567        -0.020205     -0.027734      0.027310
Ir     10.28237     10.37444     15.11617        -0.030127      0.023628      0.011874
Ir      7.10499     11.88718     11.85477        -0.008486     -0.016430      0.027744
Ir     14.45812     11.15873     10.37330         0.011152      0.012032     -0.003173
Ir     12.31016     10.60901      9.12435        -0.024288      0.005626     -0.098339
Ir      8.93694     10.80632     12.92990        -0.010022      0.031736      0.035316
Ir     10.04753     10.28882     10.66660        -0.007110     -0.006895     -0.043743
Ir     13.31105     11.23243     12.64756        -0.005009      0.030055      0.004826
Ir     11.11033     12.04678     13.39465         0.032862      0.032545     -0.048560
Ir      7.96722     11.71756      9.54282         0.018759     -0.009287     -0.068798
Ir     11.34030      8.13031      9.51326        -0.016092      0.014474     -0.022598
Ir      6.93919     13.46844      8.28287         0.026355     -0.002646      0.023343
Ir      9.12519      7.27175      8.83450        -0.016783     -0.008463     -0.016297
Ir      7.79545      9.19899      9.72606        -0.052976      0.027850     -0.036050
Ir     10.37806     12.30633      9.00265        -0.005191      0.016926      0.035559
Ir      9.36458      7.89239     11.28849         0.000332     -0.023030     -0.014594
Ir     13.79471      8.48011      8.85231        -0.003841     -0.018982      0.017707
