36
# total energy = -218.40103785 eVH      4.98145      4.37633      7.50000         0.001152     -0.001478      0.000000
H      4.98130      8.62801      7.50000         0.000658      0.001573      0.000000
H      1.29933      6.50207      7.50000        -0.001706     -0.000302      0.000000
H      6.28060      2.12582      7.50000        -0.001152      0.001478      0.000000
H      6.28075     -2.12586      7.50000        -0.000658     -0.001573      0.000000
H      9.96273      0.00008      7.50000         0.001706      0.000302     -0.000000
C      6.81815     -1.19503      7.50000        -0.003886     -0.006579      0.000000
C      8.88791      0.00008      7.50000         0.007654      0.000329      0.000000
C      6.81802      1.19501      7.50000        -0.003597      0.006031      0.000000
C      4.44391      7.69718      7.50000         0.003886      0.006579      0.000000
C      2.37415      6.50207      7.50000        -0.007654     -0.000329      0.000000
C      4.44403      5.30714      7.50000         0.003597     -0.006031      0.000000
C      0.00011      1.38358      7.50000        -0.000332     -0.002754      0.000000
C     10.06378      5.81045      7.50000         0.002627      0.001030      0.000000
C      1.19817     12.31241      7.50000        -0.002041      0.001885      0.000000
C     11.26195      5.11857      7.50000         0.000332      0.002754      0.000000
C      1.19827      0.69170      7.50000        -0.002627     -0.001030     -0.000000
C     10.06389     -5.81026      7.50000         0.002041     -0.001885     -0.000000
O      6.15862     -0.00005      7.50000        -0.008498     -0.000078     -0.000000
O      8.18279     -1.16855      7.50000         0.004365     -0.007554      0.000000
O      8.18266      1.16868      7.50000         0.004210      0.007441      0.000000
O      5.10343      6.50220      7.50000         0.008498      0.000078      0.000000
O      3.07927      7.67070      7.50000        -0.004365      0.007554      0.000000
O      3.07940      5.33347      7.50000        -0.004210     -0.007441     -0.000000
O      0.00018      2.74781      7.50000        -0.000199     -0.004615     -0.000000
O      8.88229      5.12840      7.50000         0.004425      0.001937     -0.000000
O      2.37958     11.63024      7.50000        -0.003657      0.002955     -0.000000
O     11.26187      3.75434      7.50000         0.000199      0.004615      0.000000
O      2.37977      1.37375      7.50000        -0.004425     -0.001937     -0.000000
O      8.88247     -5.12809      7.50000         0.003657     -0.002955      0.000000
Ir      3.96437      0.00009      7.50000         0.003104      0.000827     -0.000000
Ir      9.27979     -3.06894      7.50000        -0.002435      0.002400      0.000000
Ir      9.27995      3.06886      7.50000        -0.000674     -0.003140      0.000000
Ir      7.29769      6.50206      7.50000        -0.003104     -0.000827     -0.000000
Ir      1.98227      9.57109      7.50000         0.002435     -0.002400      0.000000
Ir      1.98211      3.43329      7.50000         0.000674      0.003140      0.000000
