152
# total energy = -1003.91892817 eVH     10.35389      5.87395      7.64558        -0.279477      0.232769      0.639076
H     10.62451     15.10445      7.64558        -0.328746     -0.133486      0.781796
H     10.62451      5.87395     13.33282         0.406524      0.050977     -0.871606
H     10.35389     15.10445     13.33282         0.042890     -0.173932     -0.492794
H      7.64558     10.35389      5.87395         0.523204      0.070654      0.011867
H      7.64558     10.62451     15.10445         0.730816      0.581572     -0.077638
H     13.33282     10.62451      5.87395        -0.502792     -0.155605      0.323389
H     13.33282     10.35389     15.10445        -0.672220     -0.106264     -0.016507
H      5.87395      7.64558     10.35389         0.089958      1.548567      0.124133
H     15.10445      7.64558     10.62451        -0.066110      0.592434      0.013145
H      5.87395     13.33282     10.62451         0.207088     -0.767801      0.094670
H     15.10445     13.33282     10.35389         0.031876     -1.215608      0.064255
H      5.87395     10.35389      7.64558         0.036853      0.093707      0.633359
H     15.10445     10.62451      7.64558        -0.152422      0.706975      1.301118
H      5.87395     10.62451     13.33282        -0.072651      0.464398     -1.438708
H     15.10445     10.35389     13.33282         0.557896     -0.015993     -1.057782
H     10.35389      7.64558      5.87395         0.203245      1.507170      0.102820
H     10.62451      7.64558     15.10445         0.581354      1.008402     -0.055872
H     10.62451     13.33282      5.87395        -0.577336     -0.729475      0.205752
H     10.35389     13.33282     15.10445        -0.057452     -0.442773     -0.216089
H      7.64558      5.87395     10.35389         1.130135     -0.278460     -0.336471
H      7.64558     15.10445     10.62451         0.735625     -0.190639      0.023583
H     13.33282      5.87395     10.62451        -0.774428      0.094082      0.502592
H     13.33282     15.10445     10.35389        -0.311419     -0.084557     -0.045390
H     12.45634     12.45634     19.01126         0.267659      0.242819     -0.240876
H     19.01126     19.01126     19.01126        -0.263935     -0.268626     -0.221630
H     19.01126     12.45634     12.45634        -0.269556      0.255491      0.235452
H     12.45634     19.01126     12.45634         0.258206     -0.276429      0.229982
C     10.35284      5.61067      6.59456        -0.128897     -0.867706     -0.746001
C     10.62556     15.36773      6.59456         0.208436      0.337989     -0.318319
C     10.62556      5.61067     14.38384        -0.190494     -0.690321      0.546435
C     10.35284     15.36773     14.38384        -0.002180      0.250202      0.519703
C      6.59456     10.35284      5.61067        -0.818122      0.074651     -0.492535
C      6.59456     10.62556     15.36773        -0.843905      0.213265      0.840838
C     14.38384     10.62556      5.61067         0.918434      0.040633     -0.896215
C     14.38384     10.35284     15.36773         1.091352     -0.023862      0.731674
C      5.61067      6.59456     10.35284        -0.713986     -0.686101     -0.433143
C     15.36773      6.59456     10.62556         0.730730      0.095637     -0.156379
C      5.61067     14.38384     10.62556        -0.310711      0.903294     -0.056342
C     15.36773     14.38384     10.35284         0.431442      1.353957     -0.274001
C      5.61067     10.35284      6.59456        -0.344428     -0.014349     -0.776216
C     15.36773     10.62556      6.59456         0.314421     -0.335648     -0.928310
C      5.61067     10.62556     14.38384        -0.403180     -0.090642      1.219871
C     15.36773     10.35284     14.38384         0.182107      0.019742      1.362308
C     10.35284      6.59456      5.61067        -0.046397     -1.168769     -0.339808
C     10.62556      6.59456     15.36773        -0.076614     -0.859777      0.662554
C     10.62556     14.38384      5.61067         0.052435      0.978059     -0.605507
C     10.35284     14.38384     15.36773        -0.022639      0.506160      0.311310
C      6.59456      5.61067     10.35284        -0.752059     -1.171116      0.194224
C      6.59456     15.36773     10.62556        -0.802921      0.218802      0.054493
C     14.38384      5.61067     10.62556         0.003798     -0.524217     -0.302994
C     14.38384     15.36773     10.35284         0.060499      0.568089     -0.035122
C     10.40319      3.19606      7.29314         0.002063      0.416322     -0.907854
C     10.35913      4.25547      6.23373        -0.008458     -0.491866      0.101672
C      0.08601      7.29314      7.29314        -0.044325     -0.904119     -0.266818
C      0.13007      6.23373      6.23373         0.008395      0.377916      0.551686
C      0.08601      3.19606      3.19606         0.021773      1.073291      0.250886
C      0.13007      4.25547      4.25547         0.000810     -0.476301     -0.360204
C     10.40319      7.29314      3.19606        -0.014287     -0.600661      0.198908
C     10.35913      6.23373      4.25547        -0.019802      0.153499     -0.667033
C      7.29314     10.40319      3.19606        -0.368920      0.014128      0.212583
C      6.23373     10.35913      4.25547         0.214834      0.014930     -0.235968
C      7.29314      0.08601      7.29314        -1.045334     -0.078642     -0.381085
C      6.23373      0.13007      6.23373         0.627984     -0.196042      0.328673
C      3.19606      0.08601      3.19606         1.076332     -0.033439      0.277255
C      4.25547      0.13007      4.25547        -0.598729     -0.124697     -0.269109
C      3.19606     10.40319      7.29314         0.477112      0.022990     -0.245509
C      4.25547     10.35913      6.23373        -0.252317      0.013169      0.140205
C      3.19606      7.29314     10.40319         0.262019     -0.475979      0.054414
C      4.25547      6.23373     10.35913        -0.889572     -0.062936      0.124682
C      7.29314      7.29314      0.08601        -0.453509     -0.404740     -0.020802
C      6.23373      6.23373      0.13007         0.537556      0.262094      0.076018
C      3.19606      3.19606      0.08601         0.671176      0.459555     -0.014351
C      4.25547      4.25547      0.13007        -0.117407     -0.880060     -0.050615
C      7.29314      3.19606     10.40319        -0.343974      0.419841      0.048200
C      6.23373      4.25547     10.35913         0.472891     -0.645734      0.154020
O     10.43466      3.58206      8.50569         0.068639      0.256870      0.786189
O     10.54374     17.39634      8.50569         0.052134     -0.064252      0.340854
O     10.54374      3.58206     12.47271         0.007175     -0.017477     -0.285801
O     10.43466     17.39634     12.47271        -0.031944     -0.096887     -0.361788
O      8.50569     10.43466      3.58206         0.545291     -0.038921      0.161412
O      8.50569     10.54374     17.39634         0.851658     -0.081169     -0.211820
O     12.47271     10.54374      3.58206        -0.844116      0.153878      0.166514
O     12.47271     10.43466     17.39634        -0.570221      0.022823     -0.202403
O      3.58206      8.50569     10.43466         0.189948      0.596799     -0.050746
O     17.39634      8.50569     10.54374        -0.148589      0.592357      0.030188
O      3.58206     12.47271     10.54374         0.116881     -0.547749      0.040110
O     17.39634     12.47271     10.43466        -0.176902     -0.539938     -0.053894
O      3.58206     10.43466      8.50569         0.114776     -0.035463      0.368488
O     17.39634     10.54374      8.50569         0.023671      0.103619      0.337818
O      3.58206     10.54374     12.47271         0.012164      0.040287     -0.279569
O     17.39634     10.43466     12.47271        -0.131027     -0.028308     -0.380214
O     10.43466      8.50569      3.58206        -0.042930      0.655579      0.191649
O     10.54374      8.50569     17.39634        -0.073531      0.775950     -0.167575
O     10.54374     12.47271      3.58206         0.154359     -0.889484      0.206773
O     10.43466     12.47271     17.39634        -0.020225     -0.362404     -0.013802
O      8.50569      3.58206     10.43466         0.542686      0.141834     -0.050985
O      8.50569     17.39634     10.54374         0.578099     -0.178475      0.013879
O     12.47271      3.58206     10.54374        -0.716858      0.121973      0.024958
O     12.47271     17.39634     10.43466        -0.507818     -0.135874     -0.034301
O     11.90042     11.90042     19.56718        -0.313958     -0.261784      0.254920
O     19.56718     19.56718     19.56718         0.298362      0.326807      0.223885
O     19.56718     11.90042     11.90042         0.341387     -0.279355     -0.250184
O     11.90042     19.56718     11.90042        -0.288766      0.350727     -0.227764
O      9.45224      1.03696      9.45224        -0.029391      0.102734     -0.116084
O      1.03696      9.45224      9.45224         0.063885     -0.012322     -0.110587
O      1.03696      1.03696      1.03696         0.051864      0.093019      0.103704
O      9.45224      9.45224      1.03696        -0.032797     -0.016042      0.103239
Zr     10.48920      2.52580     10.48920        -0.109052     -0.264465      0.179548
Zr     10.48920     18.45260     10.48920         0.027560      0.049857      0.057412
Zr     10.48920     10.48920      2.52580        -0.252242     -0.206234     -0.391297
Zr     10.48920     10.48920     18.45260         0.132066      0.007024      0.325470
Zr      2.52580     10.48920     10.48920        -0.124613     -0.086927     -0.042329
Zr     18.45260     10.48920     10.48920         0.091598     -0.064700      0.098196
Pd     12.53991      8.25765      9.85078         0.046111     -0.120334     -0.012947
Pd      7.05302      9.57236     10.49513        -0.035709     -0.026213      0.049525
Pd      6.86840     11.72027     11.97137         0.009945      0.079159     -0.063626
Pd     12.25249     13.62809      7.44657        -0.078130     -0.042493     -0.075797
Pd     11.95287      7.88000      7.21281         0.089575      0.090316     -0.016991
Pd      8.64024      7.46250      7.03271         0.046860      0.015329      0.007559
Pd     11.65529     11.61299      5.75600         0.067216     -0.025970      0.001071
Pd     14.33215      8.88394      7.83986         0.074815      0.002664     -0.098248
Pd      9.89344     11.91362      7.82410        -0.029562     -0.078162      0.000217
Pd      7.13500      7.07195     12.00967         0.007026     -0.010850      0.007272
Pd      6.53435      7.87533      8.51329        -0.017499     -0.129007     -0.004397
Pd      7.22403      9.19125     13.47074         0.059391      0.013585     -0.008155
Pd     11.33304      5.97552      9.22801        -0.010804      0.006091      0.076837
Pd     10.06276      9.66723      6.28376         0.022575     -0.026257      0.056099
Pd      9.04420     13.92007      9.35008         0.039853     -0.037738     -0.070886
Pd     10.94016      6.92955     11.60330        -0.036900      0.004610      0.042769
Pd     10.26856      9.18725      8.99853        -0.062537      0.015662     -0.007124
Pd      9.22232     11.37967     10.40657        -0.058817      0.074998     -0.011204
Pd      8.91432      7.15935      9.76192         0.032841      0.082838     -0.119727
Pd      8.88154      7.16501     13.95966         0.050144     -0.028941     -0.130789
Pd      9.26401      8.95320     11.72263        -0.034515     -0.055774     -0.039674
Pd     12.33287     10.70018      8.21295        -0.021596     -0.009464     -0.075293
Pd      6.94421     12.07100      9.26049        -0.042246      0.083274      0.026710
Pd      8.06307     10.01540      8.03990        -0.041511     -0.090946      0.129014
Pd     13.92053      6.36678      8.51223         0.033020      0.035090      0.029614
Pd     13.45714      7.73218     12.26430        -0.111952      0.066408     -0.024856
Pd      9.18944     11.20948     13.13744         0.001440      0.040845      0.053667
Pd     14.21954     12.51595      8.74603        -0.174181     -0.082517      0.054249
Pd     13.35934     10.38282     12.81413        -0.170036      0.100079     -0.101274
Pd     14.25411     10.21235     10.21780        -0.065838     -0.047160     -0.002634
Pd     11.53563     10.38423     11.06196         0.035461      0.013218     -0.029183
Pd     11.45779     12.90520      9.83995         0.043150      0.082576     -0.064647
Pd     13.61258     12.53064     11.39059         0.062608      0.104352      0.021748
Pd     11.24219     12.71223     12.40881         0.077014     -0.042176     -0.004778
Pd     11.48640     11.25949     14.59810        -0.057849      0.062450      0.067064
Pd     11.27246      8.86112     13.38785        -0.002617      0.084959      0.034719
Pd      9.44839      9.57172     15.18694         0.097213      0.002050      0.119756
Pd      8.80282     13.60185     11.98132         0.078599      0.018684      0.002278
