31
# total energy = -195.18499878 eVH      2.20698      8.01577      7.50000         0.051290     -0.004236     -0.000000
H      8.92242      3.11363      7.50000        -0.051290      0.004236     -0.000000
H      3.11363      2.20698      7.50000         0.004236      0.051290     -0.000000
H      8.01577      8.92242      7.50000        -0.004236     -0.051290      0.000000
H      1.48528      6.35861      7.50000        -0.002548      0.000359      0.000000
H      9.64412      4.77079      7.50000         0.002548     -0.000359     -0.000000
H      4.77079      1.48528      7.50000        -0.000359     -0.002548      0.000000
H      6.35861      9.64412      7.50000         0.000359      0.002548     -0.000000
H      4.17947      9.01922      7.50000         0.019731     -0.039254      0.000000
H      6.94993      2.11018      7.50000        -0.019731      0.039254     -0.000000
H      2.11018      4.17947      7.50000         0.039254      0.019731     -0.000000
H      9.01922      6.94993      7.50000        -0.039254     -0.019731      0.000000
C      8.51213      0.92679      7.50000        -0.028323      0.063416     -0.000000
C      2.61727     10.20261      7.50000         0.028323     -0.063416     -0.000000
C     10.20261      8.51213      7.50000        -0.063416     -0.028323     -0.000000
C      0.92679      2.61727      7.50000         0.063416      0.028323      0.000000
C      9.19752     10.76377      7.50000         0.093407     -0.047578     -0.000000
C      1.93188      0.36563      7.50000        -0.093407      0.047578      0.000000
C      0.36563      9.19752      7.50000         0.047578      0.093407      0.000000
C     10.76377      1.93188      7.50000        -0.047578     -0.093407     -0.000000
C      9.37389      2.10253      7.50000        -0.027476      0.014040     -0.000000
C      1.75551      9.02687      7.50000         0.027476     -0.014040     -0.000000
C      9.02687      9.37389      7.50000        -0.014040     -0.027476      0.000000
C      2.10253      1.75551      7.50000         0.014040      0.027476      0.000000
N      3.96969     10.02286      7.50000        -0.104210     -0.017926     -0.000000
N      7.15971      1.10654      7.50000         0.104210      0.017926      0.000000
N      1.10654      3.96969      7.50000         0.017926     -0.104210     -0.000000
N     10.02286      7.15971      7.50000        -0.017926      0.104210      0.000000
Ir     -0.00000     -0.00000      7.50000         0.000000      0.000000      0.000000
Ir      5.56470     -0.00000      7.50000         0.000000     -0.000000      0.000000
Ir     -0.00000      5.56470      7.50000         0.000000     -0.000000      0.000000
