152
# total energy = -1003.06035135 eVH     10.35389      5.87395      7.64558        -0.050315      0.187891      0.891929
H     10.62451     15.10445      7.64558        -0.163617     -0.129374      1.087701
H     10.62451      5.87395     13.33282        -0.041242      0.004723     -0.984773
H     10.35389     15.10445     13.33282        -0.069651     -0.190184     -0.863097
H      7.64558     10.35389      5.87395         0.783361      0.251543     -0.161853
H      7.64558     10.62451     15.10445         0.799014      0.443101      0.028879
H     13.33282     10.62451      5.87395        -0.519860     -0.029443      0.153919
H     13.33282     10.35389     15.10445        -0.662877     -0.192823      0.047015
H      5.87395      7.64558     10.35389        -0.231152      2.020120      0.306245
H     15.10445      7.64558     10.62451        -0.020597      1.170590     -0.071212
H      5.87395     13.33282     10.62451         0.181674     -0.831493      0.009823
H     15.10445     13.33282     10.35389         0.076508     -1.134513     -0.255595
H      5.87395     10.35389      7.64558        -0.562773      0.259827      1.207992
H     15.10445     10.62451      7.64558         0.091309      0.628951      1.573014
H      5.87395     10.62451     13.33282        -0.113193      0.440819     -1.157890
H     15.10445     10.35389     13.33282         1.136289      0.052044     -1.120920
H     10.35389      7.64558      5.87395         0.385163      1.362836     -0.053460
H     10.62451      7.64558     15.10445         0.441780      0.936318     -0.035440
H     10.62451     13.33282      5.87395        -0.326451     -0.786523      0.055266
H     10.35389     13.33282     15.10445        -0.117959     -0.447985     -0.152320
H      7.64558      5.87395     10.35389         1.000842     -0.162965     -0.134057
H      7.64558     15.10445     10.62451         0.574200     -0.206063     -0.024485
H     13.33282      5.87395     10.62451        -0.990241      0.042603      0.338063
H     13.33282     15.10445     10.35389        -0.402209     -0.100825     -0.039607
H     12.45634     12.45634     19.01126         0.266203      0.234502     -0.245678
H     19.01126     19.01126     19.01126        -0.262813     -0.255933     -0.231039
H     19.01126     12.45634     12.45634        -0.259184      0.266483      0.232629
H     12.45634     19.01126     12.45634         0.264130     -0.266815      0.225831
C     10.35284      5.61067      6.59456        -0.164281     -0.950942     -0.912170
C     10.62556     15.36773      6.59456         0.081721      0.430717     -0.892908
C     10.62556      5.61067     14.38384        -0.130829     -0.662623      1.254201
C     10.35284     15.36773     14.38384         0.080671      0.310813      0.905309
C      6.59456     10.35284      5.61067        -1.472256      0.182454     -0.894960
C      6.59456     10.62556     15.36773        -0.976111      0.217381      0.709937
C     14.38384     10.62556      5.61067         1.268729      0.134038     -0.883926
C     14.38384     10.35284     15.36773         1.319236      0.058325      0.803374
C      5.61067      6.59456     10.35284        -0.795037     -1.143176      0.034395
C     15.36773      6.59456     10.62556         0.546476     -0.295220      0.013938
C      5.61067     14.38384     10.62556        -0.385049      0.939523      0.000481
C     15.36773     14.38384     10.35284         0.387193      1.393742      0.003303
C      5.61067     10.35284      6.59456        -0.292211     -0.038267     -1.462934
C     15.36773     10.62556      6.59456         0.363492     -0.044555     -1.209652
C      5.61067     10.62556     14.38384        -0.349166     -0.016375      0.994383
C     15.36773     10.35284     14.38384         0.100898     -0.062987      1.714791
C     10.35284      6.59456      5.61067        -0.036935     -1.218526     -0.590326
C     10.62556      6.59456     15.36773        -0.030519     -0.816509      0.608634
C     10.62556     14.38384      5.61067         0.005858      0.727464     -0.547468
C     10.35284     14.38384     15.36773        -0.031112      0.415141      0.367644
C      6.59456      5.61067     10.35284        -0.451726     -1.180796      0.133137
C      6.59456     15.36773     10.62556        -0.681107      0.489712      0.033360
C     14.38384      5.61067     10.62556         0.468755     -0.736589     -0.171239
C     14.38384     15.36773     10.35284         0.353252      0.529608     -0.053931
C     10.40319      3.19606      7.29314        -0.021042      0.315426     -0.967049
C     10.35913      4.25547      6.23373        -0.037023     -0.483312      0.167882
C      0.08601      7.29314      7.29314        -0.027807     -0.700238     -0.332128
C      0.13007      6.23373      6.23373        -0.028216      0.391581      0.473664
C      0.08601      3.19606      3.19606        -0.011673      0.492494      0.488340
C      0.13007      4.25547      4.25547        -0.006223     -0.483579     -0.380518
C     10.40319      7.29314      3.19606        -0.045104     -0.689176      0.234623
C     10.35913      6.23373      4.25547         0.019805      0.268099     -0.631144
C      7.29314     10.40319      3.19606        -0.614455     -0.010881      0.170743
C      6.23373     10.35913      4.25547         0.300612     -0.043341     -0.371802
C      7.29314      0.08601      7.29314        -0.773934     -0.075280     -0.327818
C      6.23373      0.13007      6.23373         0.596380     -0.195858      0.339233
C      3.19606      0.08601      3.19606         0.788460     -0.038724      0.242088
C      4.25547      0.13007      4.25547        -0.499640     -0.253906     -0.381063
C      3.19606     10.40319      7.29314         0.381001      0.003510     -0.161968
C      4.25547     10.35913      6.23373        -0.270826     -0.036105      0.342546
C      3.19606      7.29314     10.40319         0.309136     -0.446371      0.021546
C      4.25547      6.23373     10.35913        -0.890360      0.130990      0.063332
C      7.29314      7.29314      0.08601        -0.424624     -0.375187     -0.023931
C      6.23373      6.23373      0.13007         0.704965      0.079597      0.012859
C      3.19606      3.19606      0.08601         0.764010      0.341889     -0.023556
C      4.25547      4.25547      0.13007        -0.162286     -0.755848     -0.050607
C      7.29314      3.19606     10.40319        -0.453169      0.495305      0.014591
C      6.23373      4.25547     10.35913         0.381754     -0.732434      0.075821
O     10.43466      3.58206      8.50569         0.094709      0.262902      0.796854
O     10.54374     17.39634      8.50569         0.020622     -0.115758      0.370145
O     10.54374      3.58206     12.47271         0.079356      0.146155     -0.501609
O     10.43466     17.39634     12.47271        -0.033462     -0.093547     -0.339616
O      8.50569     10.43466      3.58206         0.660587     -0.074099      0.222046
O      8.50569     10.54374     17.39634         0.755355     -0.033760     -0.229208
O     12.47271     10.54374      3.58206        -0.752509      0.115271      0.268626
O     12.47271     10.43466     17.39634        -0.493193      0.013183     -0.205203
O      3.58206      8.50569     10.43466         0.186747      0.602589     -0.035012
O     17.39634      8.50569     10.54374        -0.151796      0.537613      0.037215
O      3.58206     12.47271     10.54374         0.085877     -0.432770      0.040643
O     17.39634     12.47271     10.43466        -0.157012     -0.586414     -0.033703
O      3.58206     10.43466      8.50569         0.155740     -0.022259      0.324885
O     17.39634     10.54374      8.50569        -0.052851      0.080741      0.342040
O      3.58206     10.54374     12.47271         0.064338      0.047534     -0.297888
O     17.39634     10.43466     12.47271        -0.078654     -0.024515     -0.252448
O     10.43466      8.50569      3.58206        -0.080640      0.683686      0.201239
O     10.54374      8.50569     17.39634        -0.047586      0.684966     -0.197706
O     10.54374     12.47271      3.58206         0.059513     -0.559406      0.125535
O     10.43466     12.47271     17.39634        -0.031143     -0.309268      0.000821
O      8.50569      3.58206     10.43466         0.632041      0.154509     -0.045454
O      8.50569     17.39634     10.54374         0.580172     -0.177895      0.022247
O     12.47271      3.58206     10.54374        -0.736310      0.115809      0.014114
O     12.47271     17.39634     10.43466        -0.545592     -0.133295     -0.033489
O     11.90042     11.90042     19.56718        -0.308100     -0.245580      0.260658
O     19.56718     19.56718     19.56718         0.301880      0.310952      0.247528
O     19.56718     11.90042     11.90042         0.320118     -0.301634     -0.247916
O     11.90042     19.56718     11.90042        -0.315315      0.335335     -0.229072
O      9.45224      1.03696      9.45224        -0.027724      0.103233     -0.095717
O      1.03696      9.45224      9.45224         0.047094     -0.022154     -0.100869
O      1.03696      1.03696      1.03696         0.037097      0.093395      0.095042
O      9.45224      9.45224      1.03696        -0.050014     -0.027466      0.114678
Zr     10.48920      2.52580     10.48920        -0.177205     -0.322027      0.172954
Zr     10.48920     18.45260     10.48920         0.085467      0.085503      0.020983
Zr     10.48920     10.48920      2.52580        -0.011996      0.021488     -0.366648
Zr     10.48920     10.48920     18.45260         0.060903     -0.010656      0.274419
Zr      2.52580     10.48920     10.48920        -0.097052     -0.133161     -0.008752
Zr     18.45260     10.48920     10.48920         0.097677      0.001581     -0.004892
Pd     11.98630      8.47948     10.24391        -0.003419      0.127337     -0.025335
Pd      7.25627      9.81621     10.53629         0.026243     -0.096624      0.055022
Pd      7.17425     12.08609     11.85939         0.042035      0.014292      0.042088
Pd     12.03287     13.45380      7.56422        -0.011577     -0.002916     -0.010497
Pd     11.53931      8.15467      7.50597        -0.074225     -0.041467      0.050045
Pd      8.76922      7.36339      7.15045         0.152135     -0.023787     -0.120550
Pd     11.66276     11.18075      6.16762        -0.076574      0.185760     -0.001794
Pd     13.84580      9.23180      7.65822         0.139857      0.174414     -0.026016
Pd      9.53669     11.90085      7.60115        -0.053811     -0.004167      0.042274
Pd      7.06007      7.30340     11.97395         0.084473      0.071443     -0.007678
Pd      7.01228      7.62198      8.90434        -0.145564     -0.067385     -0.019115
Pd      7.50001      9.50520     13.29766        -0.087567      0.011045     -0.057169
Pd     11.34990      5.93537      9.24632        -0.008962     -0.015637     -0.099705
Pd      9.60393      9.67171      6.05806         0.056108     -0.029423      0.089986
Pd      9.32281     14.16432      9.02555        -0.110765     -0.026035     -0.063493
Pd     11.43129      6.45915     11.82807        -0.056094     -0.038721      0.012610
Pd      9.78949      9.36426      9.01462        -0.040230     -0.034526      0.029546
Pd      9.36735     11.70082     10.26521         0.062336     -0.112137      0.121004
Pd      9.30417      7.11114     10.36893         0.001096     -0.086009     -0.071513
Pd      9.05200      7.30091     13.65748         0.014936     -0.035087     -0.000882
Pd      9.54666      9.28796     11.69842        -0.080571     -0.011855      0.098195
Pd     11.89637     10.90694      8.77658         0.041861     -0.094626     -0.003488
Pd      7.16216     12.36205      9.07956        -0.040983      0.002650      0.007936
Pd      7.63473      9.94014      7.92702         0.068772      0.107847     -0.001166
Pd     13.76253      6.93660      8.81773         0.010109     -0.008062     -0.005995
Pd     13.79647      7.75088     12.17332        -0.039890      0.004671     -0.018774
Pd      9.45562     11.61101     13.10610        -0.033279     -0.075739     -0.021625
Pd     14.14725     12.28943      8.72585        -0.058743      0.036904     -0.008197
Pd     13.49084     10.30679     12.77840         0.006793     -0.030709     -0.026285
Pd     14.12790     10.00596     10.23007        -0.042390     -0.003225      0.000761
Pd     11.54828     10.98461     11.42078        -0.187942     -0.060039     -0.130999
Pd     11.57765     13.38761     10.14621         0.002390     -0.075112     -0.066331
Pd     13.75308     12.51001     11.40791         0.014210      0.101388      0.012203
Pd     11.71460     13.34667     12.86261        -0.063970      0.022043     -0.095055
Pd     11.67468     11.26716     14.48095         0.064513      0.063331     -0.006493
Pd     11.48530      8.72210     13.27596         0.020762     -0.010639     -0.024548
Pd      9.63403      9.70084     14.99832        -0.148100     -0.107031      0.072292
Pd      9.29125     13.92348     11.71354         0.012857     -0.031364     -0.028664
