152
# total energy = -1092.87964985 eVH     10.35389      5.87395      7.64558         0.293015     -0.090640      1.327244
H     10.62451     15.10445      7.64558        -0.322004      0.155629      1.566955
H     10.62451      5.87395     13.33282         0.245765     -0.082433     -1.334062
H     10.35389     15.10445     13.33282        -0.226160     -0.015826     -1.256189
H      7.64558     10.35389      5.87395         0.416783      0.008868     -0.034431
H      7.64558     10.62451     15.10445         0.414351     -0.000891      0.006793
H     13.33282     10.62451      5.87395        -0.631619     -0.030066      0.020493
H     13.33282     10.35389     15.10445        -0.433423      0.040641      0.004689
H      5.87395      7.64558     10.35389        -0.087944      1.428517      0.218086
H     15.10445      7.64558     10.62451        -0.009848      0.597952      0.043251
H      5.87395     13.33282     10.62451        -0.050897     -0.305204      0.018745
H     15.10445     13.33282     10.35389         0.236951     -1.655415      0.117108
H      5.87395     10.35389      7.64558        -0.153751     -0.517007      0.371938
H     15.10445     10.62451      7.64558         0.526484      0.741856     -0.122148
H      5.87395     10.62451     13.33282        -0.103037     -0.188445     -0.214218
H     15.10445     10.35389     13.33282        -0.048210      0.103101      0.004820
H     10.35389      7.64558      5.87395        -0.315434      0.306517      0.056222
H     10.62451      7.64558     15.10445         0.115651      0.629956      0.192994
H     10.62451     13.33282      5.87395        -0.109929     -0.663173     -0.083114
H     10.35389     13.33282     15.10445        -0.112591     -0.414037      0.315410
H      7.64558      5.87395     10.35389         0.384446     -0.026295     -0.074497
H      7.64558     15.10445     10.62451         0.306998      0.022497     -0.071351
H     13.33282      5.87395     10.62451        -0.273029     -0.070575     -0.033183
H     13.33282     15.10445     10.35389        -0.486956      0.155872     -0.072148
H     12.45634     12.45634     19.01126         0.264379      0.246305     -0.243353
H     19.01126     19.01126     19.01126        -0.261079     -0.244316     -0.251155
H     19.01126     12.45634     12.45634        -0.259282      0.267089      0.233124
H     12.45634     19.01126     12.45634         0.272551     -0.255886      0.227331
C     10.35284      5.61067      6.59456        -0.276152     -0.201512     -1.659166
C     10.62556     15.36773      6.59456         0.444022      0.107316     -1.836774
C     10.62556      5.61067     14.38384        -0.358655     -0.075123      1.623019
C     10.35284     15.36773     14.38384         0.394423      0.080891      1.712223
C      6.59456     10.35284      5.61067        -0.730498     -0.073288     -0.321986
C      6.59456     10.62556     15.36773        -0.842103     -0.030201      0.080881
C     14.38384     10.62556      5.61067         0.976864      0.020427     -0.194560
C     14.38384     10.35284     15.36773         0.780209      0.011605      0.173115
C      5.61067      6.59456     10.35284        -0.110416     -1.461035     -0.108964
C     15.36773      6.59456     10.62556         0.193056     -1.000236      0.023840
C      5.61067     14.38384     10.62556        -0.301355      0.733841      0.025812
C     15.36773     14.38384     10.35284         0.039316      1.695654     -0.051991
C      5.61067     10.35284      6.59456        -0.736003      0.146449     -1.822155
C     15.36773     10.62556      6.59456         0.774063     -0.156150     -2.062203
C      5.61067     10.62556     14.38384        -0.667552      0.088635      1.775476
C     15.36773     10.35284     14.38384         0.615020     -0.070939      1.482247
C     10.35284      6.59456      5.61067         0.097983     -1.478909     -0.787157
C     10.62556      6.59456     15.36773        -0.047911     -1.721280      0.831775
C     10.62556     14.38384      5.61067         0.056485      1.617444     -0.894771
C     10.35284     14.38384     15.36773        -0.020085      1.865478      0.797622
C      6.59456      5.61067     10.35284        -0.562535     -0.896559     -0.058368
C      6.59456     15.36773     10.62556        -1.155613      0.637832      0.078035
C     14.38384      5.61067     10.62556         1.158532     -0.791137      0.096800
C     14.38384     15.36773     10.35284         0.744476      1.023436      0.033885
C     10.40319      3.19606      7.29314         0.013948      0.528597     -0.496644
C     10.35913      4.25547      6.23373        -0.012267     -0.831320      0.465927
C      0.08601      7.29314      7.29314         0.019232     -0.518668     -0.551382
C      0.13007      6.23373      6.23373         0.015101      0.911542      0.478956
C      0.08601      3.19606      3.19606         0.009293      0.656546      0.392486
C      0.13007      4.25547      4.25547        -0.033020     -0.780579     -0.464027
C     10.40319      7.29314      3.19606         0.017951     -0.653696      0.497931
C     10.35913      6.23373      4.25547         0.065145      0.631862     -0.453879
C      7.29314     10.40319      3.19606        -0.316744     -0.005963      0.598323
C      6.23373     10.35913      4.25547         0.171639     -0.070987     -0.208000
C      7.29314      0.08601      7.29314        -0.239818     -0.024948     -0.409253
C      6.23373      0.13007      6.23373         0.130464     -0.086934      0.402345
C      3.19606      0.08601      3.19606         0.380162      0.008656      0.440015
C      4.25547      0.13007      4.25547        -0.189063      0.063565     -0.271127
C      3.19606     10.40319      7.29314         0.285495      0.018273     -0.488872
C      4.25547     10.35913      6.23373        -0.162549      0.093099      0.448572
C      3.19606      7.29314     10.40319         0.202374     -0.356484     -0.011382
C      4.25547      6.23373     10.35913        -0.622092      0.224603      0.073055
C      7.29314      7.29314      0.08601        -0.595364     -0.383408      0.004209
C      6.23373      6.23373      0.13007         0.102451      0.254924     -0.059811
C      3.19606      3.19606      0.08601         0.541712      0.370970     -0.004750
C      4.25547      4.25547      0.13007        -0.060531     -0.117162     -0.020012
C      7.29314      3.19606     10.40319        -0.233753      0.428426     -0.011244
C      6.23373      4.25547     10.35913         0.716258     -0.273865      0.045991
O     10.43466      3.58206      8.50569         0.007721      0.222664      0.456395
O     10.54374     17.39634      8.50569        -0.026122     -0.217260      0.483466
O     10.54374      3.58206     12.47271         0.072746      0.152728     -0.348734
O     10.43466     17.39634     12.47271        -0.122904     -0.175306     -0.379459
O      8.50569     10.43466      3.58206         0.397620     -0.024049      0.065648
O      8.50569     10.54374     17.39634         0.443120      0.055584     -0.118673
O     12.47271     10.54374      3.58206        -0.493505     -0.005900      0.120677
O     12.47271     10.43466     17.39634        -0.456147     -0.053867     -0.125458
O      3.58206      8.50569     10.43466         0.174945      0.440486     -0.047677
O     17.39634      8.50569     10.54374        -0.069965      0.506665      0.036826
O      3.58206     12.47271     10.54374         0.055159     -0.494118      0.042112
O     17.39634     12.47271     10.43466        -0.192415     -0.492764     -0.011763
O      3.58206     10.43466      8.50569         0.169626     -0.018274      0.483203
O     17.39634     10.54374      8.50569        -0.124792     -0.008478      0.456257
O      3.58206     10.54374     12.47271         0.187217      0.075326     -0.446345
O     17.39634     10.43466     12.47271        -0.204558     -0.051482     -0.574590
O     10.43466      8.50569      3.58206         0.050205      0.582974      0.257135
O     10.54374      8.50569     17.39634         0.058601      0.550439     -0.233972
O     10.54374     12.47271      3.58206        -0.005910     -0.664045      0.275396
O     10.43466     12.47271     17.39634        -0.040920     -0.533831     -0.240605
O      8.50569      3.58206     10.43466         0.524709      0.146889     -0.030920
O      8.50569     17.39634     10.54374         0.627356     -0.121815      0.057230
O     12.47271      3.58206     10.54374        -0.620680      0.132213      0.013763
O     12.47271     17.39634     10.43466        -0.503076     -0.141430     -0.010010
O     11.90042     11.90042     19.56718        -0.309927     -0.288426      0.266030
O     19.56718     19.56718     19.56718         0.309049      0.275052      0.286995
O     19.56718     11.90042     11.90042         0.310164     -0.320464     -0.239723
O     11.90042     19.56718     11.90042        -0.329705      0.282098     -0.227523
O      9.45224      1.03696      9.45224        -0.044975      0.048403     -0.071146
O      1.03696      9.45224      9.45224         0.030033     -0.078083     -0.061829
O      1.03696      1.03696      1.03696         0.031645      0.042607      0.128670
O      9.45224      9.45224      1.03696        -0.036926     -0.083065      0.129062
Zr     10.48920      2.52580     10.48920        -0.103709     -0.104362      0.013036
Zr     10.48920     18.45260     10.48920         0.136653      0.185949     -0.121882
Zr     10.48920     10.48920      2.52580         0.008113      0.098434     -0.315391
Zr     10.48920     10.48920     18.45260        -0.019585     -0.016844      0.161943
Zr      2.52580     10.48920     10.48920        -0.035145     -0.016471     -0.057876
Zr     18.45260     10.48920     10.48920         0.125543      0.094983     -0.149214
Pd     13.07800      8.16532      7.72077         0.006611     -0.107417      0.003319
Pd      9.44614     14.60963     11.75944         0.054633     -0.123608     -0.063271
Pd     12.34842     11.01534     10.46109        -0.102966     -0.023628     -0.028737
Pd     14.69281     10.28790     11.59723         0.017214     -0.104301      0.015027
Pd     11.05865      9.25031      6.23405        -0.039432      0.041979      0.009141
Pd      6.79050      8.33735      8.83234         0.355010      0.116207      0.164929
Ir     10.23580     11.89640     11.78939        -0.002407      0.031324     -0.025947
Ir     13.02449      8.41378     10.39103        -0.073722     -0.067688      0.052129
Ir     12.28096     11.04776      7.75261         0.124869      0.000993      0.063761
Ir      9.57383     14.33882      9.13640         0.080698      0.035296      0.004858
Ir     10.89001      9.26542     11.77691        -0.118538      0.005252     -0.097407
Ir      8.70105      9.95166      7.84090         0.001028     -0.007274     -0.045124
Ir     13.85349     12.61922      9.01427        -0.174820      0.018845      0.131674
Ir     11.91837     13.61955      7.81484        -0.079549      0.034035     -0.009712
Ir     14.33976     10.05830      9.07305        -0.020429     -0.018257      0.050635
Ir      9.38074      7.40277     10.50872        -0.064380     -0.048870     -0.171679
Ir      8.10460     12.59664      7.84376         0.012817      0.025925     -0.050888
Ir      9.18634      7.51566      7.99052         0.022963      0.013100     -0.139988
Ir     11.78718     13.65093     13.03776        -0.070728     -0.083661     -0.022622
Ir     11.59240      6.78732     11.80075        -0.018701      0.051426      0.093787
Ir     10.20406     11.79574      9.10825        -0.021947     -0.065494      0.010344
Ir     13.00635      8.47290     13.06299         0.023425     -0.048021     -0.012263
Ir     10.89120      9.16645      9.03731        -0.042251     -0.060095      0.041669
Ir     11.70802     13.64826     10.39983        -0.083737      0.037718      0.031709
Ir     13.77108     12.84640     11.83215         0.016364     -0.086222     -0.033823
Ir     12.37628     11.12788     13.13408         0.059593     -0.022836     -0.015378
Ir     10.10285     11.62292      6.50724        -0.054130      0.105709      0.116687
Ir     11.46185      6.62793      9.27141         0.086464      0.002544     -0.044107
Ir      7.30486      8.25494     11.78585        -0.174608      0.002031      0.115200
Ir      8.13801     12.66215     10.45202         0.026173      0.050523     -0.049291
Ir     10.94218      9.34669     14.34065         0.111379     -0.142100     -0.065699
Ir      8.04688     12.50505     13.01553        -0.017868     -0.057346     -0.062843
Ir      6.60358     11.02634      9.18779        -0.043738      0.097472     -0.150548
Ir      8.69501      9.98677     13.11024        -0.053326      0.110402     -0.076830
Ir      6.61112     10.79320     11.60636        -0.107420      0.068488      0.150649
Ir      9.25042      7.44103     13.11276        -0.101616     -0.051136      0.028413
Ir     10.12831     11.69479     14.37751         0.119655     -0.057336     -0.048010
Ir      8.74777      9.98165     10.45655         0.104386      0.038583     -0.060232
