152
# total energy = -1061.44843815 eVH     10.35389      5.87395      7.64558        -0.202894      0.124804      1.036987
H     10.62451     15.10445      7.64558         0.447901     -0.118022      0.773309
H     10.62451      5.87395     13.33282        -0.092492      0.099220     -0.456079
H     10.35389     15.10445     13.33282         0.092695     -0.186272     -0.399744
H      7.64558     10.35389      5.87395         0.891900      0.198583      0.218941
H      7.64558     10.62451     15.10445         0.210548     -0.022261     -0.072947
H     13.33282     10.62451      5.87395        -0.602163     -0.052128      0.164673
H     13.33282     10.35389     15.10445        -0.323528     -0.057941     -0.073433
H      5.87395      7.64558     10.35389         0.127861      0.363012     -0.077116
H     15.10445      7.64558     10.62451        -0.138045      0.452752      0.183674
H      5.87395     13.33282     10.62451         0.105684     -0.632800      0.106322
H     15.10445     13.33282     10.35389        -0.230957     -0.437268      0.091574
H      5.87395     10.35389      7.64558         0.157688      0.275228      0.382524
H     15.10445     10.62451      7.64558        -0.134048     -0.380538      0.749002
H      5.87395     10.62451     13.33282         0.036458      0.157141     -0.702085
H     15.10445     10.35389     13.33282         0.082298     -0.254559     -0.743371
H     10.35389      7.64558      5.87395        -0.153921      0.445537      0.217888
H     10.62451      7.64558     15.10445         0.368841      0.611004     -0.119898
H     10.62451     13.33282      5.87395         0.090342     -0.560529      0.103641
H     10.35389     13.33282     15.10445         0.260669     -0.724864     -0.085421
H      7.64558      5.87395     10.35389         0.478121      0.144413     -0.151364
H      7.64558     15.10445     10.62451         0.398270     -0.148625      0.423494
H     13.33282      5.87395     10.62451        -0.388384      0.159378     -0.075105
H     13.33282     15.10445     10.35389        -0.581994     -0.292673      0.120737
H     12.45634     12.45634     19.01126         0.230904      0.265346     -0.248863
H     19.01126     19.01126     19.01126        -0.261513     -0.259247     -0.230254
H     19.01126     12.45634     12.45634        -0.234045      0.275739      0.236077
H     12.45634     19.01126     12.45634         0.276473     -0.210677      0.255583
C     10.35284      5.61067      6.59456         0.280943     -0.305614     -0.798045
C     10.62556     15.36773      6.59456        -0.196320      0.639543     -0.275267
C     10.62556      5.61067     14.38384         0.255008     -0.235802      0.486350
C     10.35284     15.36773     14.38384        -0.111930      0.272639      0.262744
C      6.59456     10.35284      5.61067        -0.838181     -0.100952     -0.239448
C      6.59456     10.62556     15.36773        -0.512430      0.045423      0.343007
C     14.38384     10.62556      5.61067         0.792080     -0.035092     -0.641589
C     14.38384     10.35284     15.36773         0.265177     -0.075554      0.353979
C      5.61067      6.59456     10.35284        -0.401391     -0.360578      0.078765
C     15.36773      6.59456     10.62556         0.310496     -0.491185     -0.074025
C      5.61067     14.38384     10.62556        -0.149295      0.510112     -0.389381
C     15.36773     14.38384     10.35284         0.417744      0.845405     -0.096366
C      5.61067     10.35284      6.59456        -0.315507     -0.168740     -0.106617
C     15.36773     10.62556      6.59456         0.216801      0.287249     -0.587037
C      5.61067     10.62556     14.38384        -0.337329     -0.045063      1.202517
C     15.36773     10.35284     14.38384         0.289491     -0.059665      1.002115
C     10.35284      6.59456      5.61067         0.079997     -0.249806     -0.510472
C     10.62556      6.59456     15.36773         0.016099     -0.784015      0.124065
C     10.62556     14.38384      5.61067        -0.384118      0.175131     -0.917939
C     10.35284     14.38384     15.36773        -0.259725      0.847350      0.268431
C      6.59456      5.61067     10.35284        -0.349661     -0.288440      0.253918
C      6.59456     15.36773     10.62556        -0.285467      0.523855     -0.051882
C     14.38384      5.61067     10.62556         0.473254     -0.371644      0.059577
C     14.38384     15.36773     10.35284         0.975428      0.266858     -0.064043
C     10.40319      3.19606      7.29314         0.008447      0.547118     -0.317860
C     10.35913      4.25547      6.23373        -0.013434     -0.531127      0.418192
C      0.08601      7.29314      7.29314        -0.014164     -0.852434     -0.564162
C      0.13007      6.23373      6.23373        -0.186896      0.875802      0.150574
C      0.08601      3.19606      3.19606        -0.010611      0.411898      0.386386
C      0.13007      4.25547      4.25547         0.065271     -0.225592     -0.575396
C     10.40319      7.29314      3.19606        -0.047679     -1.051376      0.770612
C     10.35913      6.23373      4.25547         0.015332      0.342725     -0.226430
C      7.29314     10.40319      3.19606        -1.300103     -0.083999      0.323636
C      6.23373     10.35913      4.25547         0.266172      0.019898     -0.701868
C      7.29314      0.08601      7.29314        -0.829539     -0.001961     -0.412184
C      6.23373      0.13007      6.23373         0.332331      0.055034      0.127196
C      3.19606      0.08601      3.19606         0.326250      0.000292      0.430401
C      4.25547      0.13007      4.25547        -0.284690     -0.033527     -0.180250
C      3.19606     10.40319      7.29314         0.492929     -0.040909     -1.026410
C      4.25547     10.35913      6.23373        -0.318134     -0.073930      0.097565
C      3.19606      7.29314     10.40319         1.086257     -0.444762      0.009724
C      4.25547      6.23373     10.35913        -0.194481      0.166717     -0.001433
C      7.29314      7.29314      0.08601        -0.494546     -0.280678     -0.007213
C      6.23373      6.23373      0.13007         0.176160      0.162597     -0.153265
C      3.19606      3.19606      0.08601         0.353832      0.873294     -0.008271
C      4.25547      4.25547      0.13007        -0.567672     -0.187536      0.040401
C      7.29314      3.19606     10.40319        -0.195841      0.502030      0.025888
C      6.23373      4.25547     10.35913        -0.012164     -0.366923      0.044025
O     10.43466      3.58206      8.50569        -0.022904      0.134483      0.391416
O     10.54374     17.39634      8.50569         0.041413      0.054705      0.364687
O     10.54374      3.58206     12.47271         0.041378      0.194010     -0.574040
O     10.43466     17.39634     12.47271         0.027943     -0.011655     -0.456138
O      8.50569     10.43466      3.58206         0.764825     -0.060835     -0.013945
O      8.50569     10.54374     17.39634         0.851580      0.021984     -0.161718
O     12.47271     10.54374      3.58206        -0.349029      0.037801      0.081101
O     12.47271     10.43466     17.39634        -0.377793     -0.036756      0.038776
O      3.58206      8.50569     10.43466        -0.103875      0.261857     -0.077618
O     17.39634      8.50569     10.54374        -0.107714      0.446414      0.042384
O      3.58206     12.47271     10.54374         0.150230     -0.818073     -0.021704
O     17.39634     12.47271     10.43466        -0.240612     -0.636662     -0.014438
O      3.58206     10.43466      8.50569         0.129815     -0.031643      0.793289
O     17.39634     10.54374      8.50569         0.001260      0.035359      0.341284
O      3.58206     10.54374     12.47271         0.066979      0.017440     -0.460280
O     17.39634     10.43466     12.47271         0.049020      0.012750     -0.243123
O     10.43466      8.50569      3.58206        -0.056430      0.572649     -0.069602
O     10.54374      8.50569     17.39634         0.027790      0.870201     -0.206165
O     10.54374     12.47271      3.58206         0.069209     -0.371540      0.076592
O     10.43466     12.47271     17.39634        -0.055663     -0.640973     -0.198289
O      8.50569      3.58206     10.43466         0.346997      0.081014     -0.052798
O      8.50569     17.39634     10.54374         0.555466     -0.164114     -0.014784
O     12.47271      3.58206     10.54374        -0.365860      0.051288      0.035595
O     12.47271     17.39634     10.43466        -0.838101     -0.144052      0.068870
O     11.90042     11.90042     19.56718        -0.243848     -0.283159      0.238102
O     19.56718     19.56718     19.56718         0.300020      0.293806      0.250078
O     19.56718     11.90042     11.90042         0.229103     -0.305198     -0.277004
O     11.90042     19.56718     11.90042        -0.274021      0.180220     -0.275291
O      9.45224      1.03696      9.45224        -0.108006      0.087153     -0.085525
O      1.03696      9.45224      9.45224         0.127093     -0.146037     -0.173127
O      1.03696      1.03696      1.03696         0.140250      0.206773     -0.003437
O      9.45224      9.45224      1.03696        -0.212354     -0.169445      0.031519
Zr     10.48920      2.52580     10.48920        -0.005196     -0.231180      0.148975
Zr     10.48920     18.45260     10.48920        -0.306770      0.305354     -0.152403
Zr     10.48920     10.48920      2.52580         0.355266      0.398549     -0.232241
Zr     10.48920     10.48920     18.45260        -0.000063      0.021134      0.467967
Zr      2.52580     10.48920     10.48920        -0.555967      0.022338      0.338410
Zr     18.45260     10.48920     10.48920         0.275410     -0.146232      0.004049
Pd      9.21001     14.64636      9.21453         0.007574     -0.004758      0.008071
Pd      8.47958     13.21756     13.81973        -0.006764     -0.003815      0.004332
Pd     12.15866     14.11739      8.65424        -0.016026     -0.007812      0.000562
Pd     12.25297     12.75585     10.89910        -0.000473     -0.007247      0.004080
Pd     11.78327      7.08524     11.88972        -0.009518     -0.010573      0.004283
Pd     11.17318     15.31511     10.91517         0.000269     -0.006324      0.022786
Pd      9.61959     13.16225     11.40535         0.000998      0.011617     -0.005066
Pd     14.03089     12.39194      7.95536         0.000944      0.008018      0.010461
Pd     11.57773     11.76900      6.74428        -0.004437      0.001122      0.018267
Pd      7.43805      8.53174      7.18551        -0.005514      0.007997      0.004227
Pd      8.62039     12.08695      6.90855        -0.003859      0.003323      0.004979
Pd      9.72161      9.90004      7.99892         0.000660      0.009022      0.012491
Pd      8.47705     14.73826      6.57244        -0.002000     -0.008375      0.008993
Pd     12.03058      9.05836      6.83713        -0.000698      0.006017      0.018374
Pd      9.91504     10.03617      5.40173        -0.011307      0.010242     -0.010641
Pd      6.90210      9.22868     12.16817         0.000043     -0.001307      0.000634
Pd     12.39535      6.52821      7.67015         0.006406      0.004866     -0.003788
Pd      5.57530     10.69399     10.10749        -0.024393     -0.012863     -0.002619
Pd      7.55932      6.67584     12.70477         0.008929     -0.010512     -0.010714
Ir     11.28915      9.54373     12.83652        -0.017195     -0.009116      0.008323
Ir     13.08251      9.23844     11.07466         0.014117      0.006985      0.004098
Ir      9.15631      8.42532     13.74999        -0.003652     -0.012605      0.012707
Ir     10.27706     10.36860     15.06638         0.001163      0.010784      0.011676
Ir      7.11239     11.91737     11.84094        -0.009021     -0.008262      0.027307
Ir     14.40925     11.20331     10.31574        -0.009311     -0.016521      0.014253
Ir     12.28065     10.62274      9.05220        -0.021224      0.008091     -0.015094
Ir      8.93143     10.79507     12.88969        -0.004403      0.005543      0.006982
Ir     10.02631     10.28659     10.61358        -0.005793     -0.003969     -0.002085
Ir     13.30754     11.19971     12.61115        -0.001685      0.002439     -0.019658
Ir     11.10149     12.04172     13.33212         0.003635      0.008912     -0.008578
Ir      7.96002     11.72993      9.50895         0.007473      0.000350     -0.016833
Ir     11.27622      8.15767      9.44703        -0.001074      0.007089     -0.020339
Ir      6.98226     13.58638      8.36645        -0.009939      0.002560      0.006686
Ir      9.05941      7.28874      8.79133        -0.003114     -0.002506      0.006325
Ir      7.73669      9.21167      9.70504         0.000010      0.016857     -0.006902
Ir     10.36628     12.33588      8.98029         0.003229      0.023465      0.000507
Ir      9.31920      7.89605     11.24930         0.002208     -0.001454     -0.009329
Ir     13.74264      8.46614      8.78864        -0.009959      0.005168     -0.001143
