152
# total energy = -1060.15333349 eVH     10.35389      5.87395      7.64558        -0.318693      0.100857      1.088020
H     10.62451     15.10445      7.64558         0.080989     -0.070067      0.898249
H     10.62451      5.87395     13.33282        -0.269883      0.072920     -0.783140
H     10.35389     15.10445     13.33282         0.092915     -0.303247     -0.822222
H      7.64558     10.35389      5.87395         0.894498     -0.202158      0.206710
H      7.64558     10.62451     15.10445         0.315978     -0.028331     -0.062200
H     13.33282     10.62451      5.87395        -0.886364      0.220600      0.221631
H     13.33282     10.35389     15.10445        -0.282405     -0.029400     -0.061050
H      5.87395      7.64558     10.35389         0.093027      0.421472     -0.012224
H     15.10445      7.64558     10.62451        -0.042297      0.437081     -0.030689
H      5.87395     13.33282     10.62451        -0.017612     -0.969140      0.078041
H     15.10445     13.33282     10.35389        -0.082793     -0.326868      0.001715
H      5.87395     10.35389      7.64558         0.318603      0.062159      0.370807
H     15.10445     10.62451      7.64558        -0.119858     -0.158777      0.667054
H      5.87395     10.62451     13.33282        -0.063030      0.452696     -0.600302
H     15.10445     10.35389     13.33282         0.227914     -0.638227     -0.875296
H     10.35389      7.64558      5.87395        -0.021573      0.500622      0.345654
H     10.62451      7.64558     15.10445         0.334713      0.791374     -0.005448
H     10.62451     13.33282      5.87395         0.153516     -0.568512      0.201643
H     10.35389     13.33282     15.10445         0.032837     -0.289282     -0.166923
H      7.64558      5.87395     10.35389         0.369943      0.113510      0.063744
H      7.64558     15.10445     10.62451         0.388449     -0.127979      0.178615
H     13.33282      5.87395     10.62451        -0.307090      0.137595     -0.014210
H     13.33282     15.10445     10.35389        -0.658792     -0.106457      0.136438
H     12.45634     12.45634     19.01126         0.258951      0.272388     -0.226313
H     19.01126     19.01126     19.01126        -0.248022     -0.267321     -0.244370
H     19.01126     12.45634     12.45634        -0.249209      0.271644      0.236890
H     12.45634     19.01126     12.45634         0.289831     -0.235166      0.235319
C     10.35284      5.61067      6.59456         0.402561     -0.419916     -1.358421
C     10.62556     15.36773      6.59456        -0.168017      0.609323     -0.660230
C     10.62556      5.61067     14.38384         0.365717     -0.276478      0.776971
C     10.35284     15.36773     14.38384        -0.205769      0.218250      1.027323
C      6.59456     10.35284      5.61067        -1.396036      0.032116     -0.228783
C      6.59456     10.62556     15.36773        -0.666952      0.065309      0.357114
C     14.38384     10.62556      5.61067         1.308123     -0.186983     -0.629519
C     14.38384     10.35284     15.36773         0.318234     -0.131645      0.351244
C      5.61067      6.59456     10.35284        -0.274278     -0.672747     -0.030144
C     15.36773      6.59456     10.62556         0.409543     -0.858179      0.028749
C      5.61067     14.38384     10.62556        -0.147922      1.196095     -0.219499
C     15.36773     14.38384     10.35284         0.504710      0.705869     -0.037009
C      5.61067     10.35284      6.59456        -0.373578     -0.102294     -0.779954
C     15.36773     10.62556      6.59456         0.403400      0.106909     -0.680348
C      5.61067     10.62556     14.38384        -0.410540     -0.163353      1.219239
C     15.36773     10.35284     14.38384         0.233916      0.225194      1.417329
C     10.35284      6.59456      5.61067        -0.069309     -0.747582     -0.548644
C     10.62556      6.59456     15.36773        -0.143309     -0.983409      0.376741
C     10.62556     14.38384      5.61067        -0.493517      0.379916     -0.738780
C     10.35284     14.38384     15.36773        -0.174454      0.743303      0.495298
C      6.59456      5.61067     10.35284        -0.562951     -0.336470      0.003031
C      6.59456     15.36773     10.62556        -0.366635      0.447173      0.064899
C     14.38384      5.61067     10.62556         0.433992     -0.309956      0.008223
C     14.38384     15.36773     10.35284         1.131385      0.488191     -0.078350
C     10.40319      3.19606      7.29314        -0.007434      0.779135     -0.335463
C     10.35913      4.25547      6.23373         0.023418     -0.379436      0.289874
C      0.08601      7.29314      7.29314        -0.018725     -0.379599     -0.506097
C      0.13007      6.23373      6.23373        -0.047486      0.881488      0.092981
C      0.08601      3.19606      3.19606        -0.007310      0.695690      0.260407
C      0.13007      4.25547      4.25547         0.045525     -0.265782     -0.547013
C     10.40319      7.29314      3.19606        -0.064189     -1.116134      0.618650
C     10.35913      6.23373      4.25547        -0.046515      0.346782     -0.202711
C      7.29314     10.40319      3.19606        -1.094336     -0.054902      0.200937
C      6.23373     10.35913      4.25547         0.379815      0.101533     -0.521582
C      7.29314      0.08601      7.29314        -0.476729      0.029135     -0.442644
C      6.23373      0.13007      6.23373         0.179276      0.122260      0.120597
C      3.19606      0.08601      3.19606         0.702085      0.023394      0.171302
C      4.25547      0.13007      4.25547        -0.172222     -0.050201     -0.366429
C      3.19606     10.40319      7.29314         0.369523     -0.026436     -0.951419
C      4.25547     10.35913      6.23373        -0.128759     -0.054828      0.114523
C      3.19606      7.29314     10.40319         0.614993     -0.399114      0.002460
C      4.25547      6.23373     10.35913        -0.115427      0.177829      0.011418
C      7.29314      7.29314      0.08601        -0.429035     -0.294643     -0.015333
C      6.23373      6.23373      0.13007         0.149441      0.154291     -0.062143
C      3.19606      3.19606      0.08601         0.293453      0.491937     -0.024998
C      4.25547      4.25547      0.13007        -0.403105     -0.239988     -0.031176
C      7.29314      3.19606     10.40319        -0.283695      0.594001     -0.009796
C      6.23373      4.25547     10.35913         0.016412     -0.092753      0.014955
O     10.43466      3.58206      8.50569        -0.026516      0.075019      0.304191
O     10.54374     17.39634      8.50569         0.064233     -0.123975      0.593561
O     10.54374      3.58206     12.47271         0.029139      0.101693     -0.398110
O     10.43466     17.39634     12.47271         0.094320     -0.061614     -0.432445
O      8.50569     10.43466      3.58206         0.735153     -0.072223      0.015305
O      8.50569     10.54374     17.39634         0.532126      0.061827     -0.102508
O     12.47271     10.54374      3.58206        -0.656610      0.112306      0.210652
O     12.47271     10.43466     17.39634        -0.279779      0.004215      0.037124
O      3.58206      8.50569     10.43466         0.034120      0.444637     -0.062857
O     17.39634      8.50569     10.54374        -0.054404      0.446865      0.056415
O      3.58206     12.47271     10.54374         0.104067     -0.587769      0.004241
O     17.39634     12.47271     10.43466        -0.182365     -0.741584     -0.049634
O      3.58206     10.43466      8.50569         0.209203     -0.061174      0.807303
O     17.39634     10.54374      8.50569        -0.074836      0.071963      0.492624
O      3.58206     10.54374     12.47271        -0.003664     -0.005151     -0.261790
O     17.39634     10.43466     12.47271         0.034884     -0.010181     -0.232928
O     10.43466      8.50569      3.58206        -0.107191      0.532956     -0.101070
O     10.54374      8.50569     17.39634         0.059392      0.509956     -0.083994
O     10.54374     12.47271      3.58206         0.102704     -0.638333      0.129204
O     10.43466     12.47271     17.39634        -0.065986     -0.689853     -0.273961
O      8.50569      3.58206     10.43466         0.396688      0.023159     -0.046051
O      8.50569     17.39634     10.54374         0.640922     -0.154172      0.046135
O     12.47271      3.58206     10.54374        -0.516768      0.121567      0.028732
O     12.47271     17.39634     10.43466        -0.624466     -0.124514      0.040700
O     11.90042     11.90042     19.56718        -0.278575     -0.304200      0.223263
O     19.56718     19.56718     19.56718         0.309585      0.322502      0.298246
O     19.56718     11.90042     11.90042         0.283752     -0.325331     -0.235454
O     11.90042     19.56718     11.90042        -0.314426      0.229573     -0.201156
O      9.45224      1.03696      9.45224        -0.074497      0.087091     -0.079451
O      1.03696      9.45224      9.45224         0.100656     -0.108893     -0.061119
O      1.03696      1.03696      1.03696         0.079264      0.053917      0.098545
O      9.45224      9.45224      1.03696        -0.058400     -0.125727      0.136320
Zr     10.48920      2.52580     10.48920         0.043234     -0.093688      0.121181
Zr     10.48920     18.45260     10.48920        -0.182380      0.247924     -0.360177
Zr     10.48920     10.48920      2.52580         0.111764      0.358517     -0.345985
Zr     10.48920     10.48920     18.45260        -0.079842     -0.259302      0.234212
Zr      2.52580     10.48920     10.48920        -0.240236      0.131630      0.243966
Zr     18.45260     10.48920     10.48920         0.196050     -0.137226     -0.020885
Pd      9.36073     14.30063      9.31470         0.006161      0.023151     -0.025226
Pd      8.59042     13.64136     13.04288         0.007442     -0.007339      0.024469
Pd     12.02421     14.40543      8.74378         0.009223     -0.004088      0.012773
Pd     12.75817     12.87704     10.68032        -0.041034      0.003487      0.023997
Pd     12.11986      7.19185     12.67604         0.005469     -0.001496     -0.006169
Pd     11.16054     14.90011     11.45521        -0.013311      0.020245     -0.012701
Pd     10.03664     12.55207     11.08647        -0.039791      0.031687     -0.025246
Pd     13.47957     12.15381      7.98315         0.013148      0.008719      0.004181
Pd     11.47955     11.54183      6.10840         0.006327      0.010482     -0.001466
Pd      7.94218      8.38073      7.52421         0.001301     -0.026157     -0.004233
Pd      8.72046     11.75661      6.84437        -0.001811      0.005778      0.000069
Pd     10.32295      9.45315      8.14993        -0.016410      0.002615      0.011143
Pd      8.49805     14.46378      6.79267        -0.009253      0.005425     -0.018712
Pd     12.39811      9.01703      6.56751        -0.005950      0.023727      0.034885
Pd      9.71736      9.60911      5.57295         0.006791      0.004681      0.002846
Pd      6.81509      9.45246     12.13959         0.016887      0.004845     -0.000988
Pd     12.17783      6.74338      7.95310         0.012348      0.001978      0.002843
Pd      5.91379     10.48352      9.69170        -0.000489     -0.008296      0.001780
Pd      7.54973      7.24025     13.40836         0.001517     -0.009052     -0.018107
Ir     11.73646      9.77552     13.06648        -0.032759     -0.005641      0.014006
Ir     13.55220      9.05676     11.47554        -0.014591     -0.004613      0.009117
Ir      9.42516      8.86368     14.01076        -0.013570      0.001301     -0.003155
Ir     10.50545     11.01955     14.88578        -0.002900     -0.042071      0.052160
Ir      7.26956     12.01522     11.33883         0.004766     -0.006064      0.016270
Ir     14.65000     10.91170     10.15176        -0.003398      0.022378      0.026376
Ir     12.16361     10.57100      9.67770        -0.004349     -0.010082     -0.014708
Ir      8.74617     10.99959     12.98948         0.019998      0.021410     -0.014590
Ir     10.10647      9.91694     11.17320        -0.004464      0.018383     -0.011344
Ir     13.73796     11.41848     12.48888        -0.040972      0.007309      0.048636
Ir     11.59079     12.35528     13.08795        -0.069225     -0.032209      0.014204
Ir      8.49861     11.09775      9.33411        -0.005189     -0.002420      0.002406
Ir     11.59222      8.02718     10.14365         0.026030      0.007603      0.007679
Ir      7.21726     13.03117      8.65616         0.016109      0.012483      0.012705
Ir      9.54784      6.96367      9.24002         0.004101     -0.015328     -0.014036
Ir      8.05367      8.76435     10.05856        -0.011470      0.014661     -0.004771
Ir     10.72176     12.12345      8.50313        -0.003649     -0.001425     -0.002724
Ir      9.51367      7.57248     11.75574         0.000205      0.006719      0.017316
Ir     13.66736      8.79785      8.84161         0.014610     -0.001473      0.022049
