40
# total energy = -344.71657285 eVC      1.19992      4.91691      7.50000         0.080584      0.047990     -0.000000
C     13.92698      3.44635      7.50000        -0.080584     -0.047990     -0.000000
C     13.92698      4.91691      7.50000        -0.080584      0.047990     -0.000000
C      1.19992      3.44635      7.50000         0.080584     -0.047990     -0.000000
C      8.76337      0.73528      7.50000         0.080584      0.047990      0.000000
C      6.36353      7.62798      7.50000        -0.080584     -0.047990     -0.000000
C      6.36353      0.73528      7.50000        -0.080584      0.047990      0.000000
C      8.76337      7.62798      7.50000         0.080584     -0.047990     -0.000000
C      2.49190      2.76941      7.50000         0.078429      0.029885     -0.000000
C     12.63500      5.59385      7.50000        -0.078429     -0.029885      0.000000
C     12.63500      2.76941      7.50000        -0.078429      0.029885      0.000000
C      2.49190      5.59385      7.50000         0.078429     -0.029885     -0.000000
C     10.05535      6.95104      7.50000         0.078429      0.029885     -0.000000
C      5.07155      1.41222      7.50000        -0.078429     -0.029885      0.000000
C      5.07155      6.95104      7.50000        -0.078429      0.029885      0.000000
C     10.05535      1.41222      7.50000         0.078429     -0.029885     -0.000000
C      3.73490      4.89191      7.50000        -0.166705     -0.164548     -0.000000
C     11.39200      3.47135      7.50000         0.166705      0.164548      0.000000
C     11.39200      4.89191      7.50000         0.166705     -0.164548      0.000000
C      3.73490      3.47135      7.50000        -0.166705      0.164548     -0.000000
C     11.29835      0.71028      7.50000        -0.166705     -0.164548     -0.000000
C      3.82855      7.65298      7.50000         0.166705      0.164548      0.000000
C      3.82855      0.71028      7.50000         0.166705     -0.164548      0.000000
C     11.29835      7.65298      7.50000        -0.166705      0.164548     -0.000000
N      2.60099      6.97108      7.50000         0.036746      0.071208     -0.000000
N     12.52591      1.39218      7.50000        -0.036746     -0.071208     -0.000000
N     12.52591      6.97108      7.50000        -0.036746      0.071208     -0.000000
N      2.60099      1.39218      7.50000         0.036746     -0.071208     -0.000000
N     10.16444      2.78945      7.50000         0.036746      0.071208      0.000000
N      4.96246      5.57381      7.50000        -0.036746     -0.071208      0.000000
N      4.96246      2.78945      7.50000        -0.036746      0.071208      0.000000
N     10.16444      5.57381      7.50000         0.036746     -0.071208      0.000000
N      7.56345      6.89612      7.50000        -0.000000      0.108865     -0.000000
N      7.56345      1.46714      7.50000        -0.000000     -0.108865      0.000000
N     -0.00000      2.71449      7.50000        -0.000000      0.108865      0.000000
N     -0.00000      5.64877      7.50000        -0.000000     -0.108865      0.000000
Zr     14.10593      0.00000      7.50000         0.041066      0.000000      0.000000
Zr      1.02097      0.00000      7.50000        -0.041066      0.000000      0.000000
Zr      6.54248      4.18163      7.50000         0.041066      0.000000      0.000000
Zr      8.58442      4.18163      7.50000        -0.041066      0.000000      0.000000
