152
# total energy = -1003.88890177 eVH     10.35389      5.87395      7.64558        -0.279108      0.229169      0.650853
H     10.62451     15.10445      7.64558        -0.334126     -0.132937      0.795218
H     10.62451      5.87395     13.33282         0.393277      0.050214     -0.861587
H     10.35389     15.10445     13.33282         0.040206     -0.173498     -0.498284
H      7.64558     10.35389      5.87395         0.530282      0.071111      0.004087
H      7.64558     10.62451     15.10445         0.731818      0.582930     -0.072418
H     13.33282     10.62451      5.87395        -0.510924     -0.150730      0.323983
H     13.33282     10.35389     15.10445        -0.667368     -0.102449     -0.017302
H      5.87395      7.64558     10.35389         0.088681      1.559893      0.137741
H     15.10445      7.64558     10.62451        -0.066260      0.594744      0.007745
H      5.87395     13.33282     10.62451         0.208922     -0.772224      0.097006
H     15.10445     13.33282     10.35389         0.028496     -1.209937      0.072226
H      5.87395     10.35389      7.64558         0.032122      0.091524      0.641286
H     15.10445     10.62451      7.64558        -0.151159      0.688464      1.298400
H      5.87395     10.62451     13.33282        -0.077346      0.465196     -1.438720
H     15.10445     10.35389     13.33282         0.613878     -0.005548     -1.078747
H     10.35389      7.64558      5.87395         0.196350      1.514541      0.089782
H     10.62451      7.64558     15.10445         0.575731      1.007038     -0.059939
H     10.62451     13.33282      5.87395        -0.577217     -0.725786      0.206077
H     10.35389     13.33282     15.10445        -0.057330     -0.442079     -0.213612
H      7.64558      5.87395     10.35389         1.116176     -0.275418     -0.336694
H      7.64558     15.10445     10.62451         0.737874     -0.190636      0.028391
H     13.33282      5.87395     10.62451        -0.780105      0.094986      0.496673
H     13.33282     15.10445     10.35389        -0.311918     -0.085207     -0.043301
H     12.45634     12.45634     19.01126         0.267789      0.242374     -0.241280
H     19.01126     19.01126     19.01126        -0.264410     -0.267888     -0.222172
H     19.01126     12.45634     12.45634        -0.269813      0.255273      0.235764
H     12.45634     19.01126     12.45634         0.258047     -0.276398      0.230484
C     10.35284      5.61067      6.59456        -0.138080     -0.873781     -0.753425
C     10.62556     15.36773      6.59456         0.213455      0.333533     -0.335572
C     10.62556      5.61067     14.38384        -0.209893     -0.686757      0.548471
C     10.35284     15.36773     14.38384        -0.001651      0.249309      0.529654
C      6.59456     10.35284      5.61067        -0.828572      0.074169     -0.491813
C      6.59456     10.62556     15.36773        -0.836456      0.215672      0.842782
C     14.38384     10.62556      5.61067         0.907452      0.038066     -0.882918
C     14.38384     10.35284     15.36773         1.089497     -0.020256      0.745927
C      5.61067      6.59456     10.35284        -0.706265     -0.689776     -0.429035
C     15.36773      6.59456     10.62556         0.730517      0.106853     -0.156347
C      5.61067     14.38384     10.62556        -0.311415      0.900032     -0.059210
C     15.36773     14.38384     10.35284         0.438428      1.348326     -0.279463
C      5.61067     10.35284      6.59456        -0.344132     -0.012582     -0.784082
C     15.36773     10.62556      6.59456         0.303765     -0.328480     -0.920153
C      5.61067     10.62556     14.38384        -0.411603     -0.086925      1.225630
C     15.36773     10.35284     14.38384         0.169936      0.017370      1.402665
C     10.35284      6.59456      5.61067        -0.059445     -1.180529     -0.348463
C     10.62556      6.59456     15.36773        -0.087450     -0.859837      0.661373
C     10.62556     14.38384      5.61067         0.045919      0.988752     -0.616565
C     10.35284     14.38384     15.36773        -0.022065      0.501184      0.308556
C      6.59456      5.61067     10.35284        -0.745415     -1.182403      0.198250
C      6.59456     15.36773     10.62556        -0.805261      0.222553      0.052589
C     14.38384      5.61067     10.62556         0.010733     -0.526521     -0.302826
C     14.38384     15.36773     10.35284         0.063167      0.571109     -0.034339
C     10.40319      3.19606      7.29314         0.001716      0.411054     -0.924272
C     10.35913      4.25547      6.23373        -0.007084     -0.492346      0.103862
C      0.08601      7.29314      7.29314        -0.044799     -0.899337     -0.266332
C      0.13007      6.23373      6.23373         0.013737      0.375193      0.557995
C      0.08601      3.19606      3.19606         0.020601      1.068514      0.255024
C      0.13007      4.25547      4.25547         0.003270     -0.480425     -0.355966
C     10.40319      7.29314      3.19606        -0.013689     -0.594171      0.201136
C     10.35913      6.23373      4.25547        -0.015120      0.161191     -0.663767
C      7.29314     10.40319      3.19606        -0.364377      0.013602      0.211257
C      6.23373     10.35913      4.25547         0.217063      0.011849     -0.248445
C      7.29314      0.08601      7.29314        -1.029240     -0.078919     -0.378086
C      6.23373      0.13007      6.23373         0.626577     -0.197769      0.328554
C      3.19606      0.08601      3.19606         1.071608     -0.033906      0.280110
C      4.25547      0.13007      4.25547        -0.595143     -0.128664     -0.279648
C      3.19606     10.40319      7.29314         0.476221      0.021800     -0.244547
C      4.25547     10.35913      6.23373        -0.253347      0.010869      0.140606
C      3.19606      7.29314     10.40319         0.262038     -0.472994      0.053794
C      4.25547      6.23373     10.35913        -0.897126     -0.064816      0.121284
C      7.29314      7.29314      0.08601        -0.455006     -0.401515     -0.020715
C      6.23373      6.23373      0.13007         0.542496      0.259842      0.076086
C      3.19606      3.19606      0.08601         0.683714      0.459500     -0.013454
C      4.25547      4.25547      0.13007        -0.118573     -0.885623     -0.048547
C      7.29314      3.19606     10.40319        -0.346686      0.417214      0.047438
C      6.23373      4.25547     10.35913         0.466101     -0.644998      0.152902
O     10.43466      3.58206      8.50569         0.072119      0.257258      0.795343
O     10.54374     17.39634      8.50569         0.052183     -0.065600      0.340321
O     10.54374      3.58206     12.47271         0.007804     -0.016273     -0.289254
O     10.43466     17.39634     12.47271        -0.032225     -0.098931     -0.365037
O      8.50569     10.43466      3.58206         0.542884     -0.037981      0.162398
O      8.50569     10.54374     17.39634         0.847030     -0.080432     -0.213162
O     12.47271     10.54374      3.58206        -0.843230      0.154154      0.168765
O     12.47271     10.43466     17.39634        -0.571408      0.022082     -0.202822
O      3.58206      8.50569     10.43466         0.189909      0.595799     -0.050431
O     17.39634      8.50569     10.54374        -0.148111      0.589530      0.031261
O      3.58206     12.47271     10.54374         0.115039     -0.545192      0.040108
O     17.39634     12.47271     10.43466        -0.175739     -0.536931     -0.053488
O      3.58206     10.43466      8.50569         0.115299     -0.034435      0.367291
O     17.39634     10.54374      8.50569         0.019373      0.103803      0.341095
O      3.58206     10.54374     12.47271         0.014062      0.040901     -0.283875
O     17.39634     10.43466     12.47271        -0.131990     -0.028362     -0.379266
O     10.43466      8.50569      3.58206        -0.041971      0.652394      0.192124
O     10.54374      8.50569     17.39634        -0.072355      0.776024     -0.168861
O     10.54374     12.47271      3.58206         0.155024     -0.884647      0.205552
O     10.43466     12.47271     17.39634        -0.021442     -0.358575     -0.009876
O      8.50569      3.58206     10.43466         0.545083      0.142084     -0.051214
O      8.50569     17.39634     10.54374         0.579219     -0.179840      0.013344
O     12.47271      3.58206     10.54374        -0.721083      0.121051      0.024486
O     12.47271     17.39634     10.43466        -0.508465     -0.136670     -0.034372
O     11.90042     11.90042     19.56718        -0.313739     -0.260339      0.255420
O     19.56718     19.56718     19.56718         0.299732      0.326304      0.225051
O     19.56718     11.90042     11.90042         0.341952     -0.278062     -0.250500
O     11.90042     19.56718     11.90042        -0.288783      0.351334     -0.228703
O      9.45224      1.03696      9.45224        -0.026792      0.103937     -0.116208
O      1.03696      9.45224      9.45224         0.063545     -0.010714     -0.111466
O      1.03696      1.03696      1.03696         0.051847      0.094901      0.102531
O      9.45224      9.45224      1.03696        -0.032277     -0.015585      0.103025
Zr     10.48920      2.52580     10.48920        -0.114026     -0.271495      0.182150
Zr     10.48920     18.45260     10.48920         0.026962      0.049198      0.060250
Zr     10.48920     10.48920      2.52580        -0.251732     -0.211045     -0.387057
Zr     10.48920     10.48920     18.45260         0.123975      0.005892      0.327678
Zr      2.52580     10.48920     10.48920        -0.124744     -0.091721     -0.040121
Zr     18.45260     10.48920     10.48920         0.087912     -0.067134      0.095848
Pd     12.53099      8.25783      9.86234         0.046262     -0.076491      0.012272
Pd      7.07414      9.56261     10.49805        -0.045083     -0.004070      0.039695
Pd      6.86531     11.71199     11.96709         0.010999      0.103088     -0.074677
Pd     12.24538     13.63348      7.46395        -0.070085     -0.049823     -0.103454
Pd     11.92203      7.87578      7.23838         0.139929      0.103849     -0.038033
Pd      8.64402      7.46702      7.03507         0.062073      0.022024      0.040841
Pd     11.65850     11.62074      5.75857         0.069086     -0.030583      0.032683
Pd     14.31195      8.88515      7.82809         0.065486      0.025687     -0.082704
Pd      9.88622     11.92324      7.82157        -0.025534     -0.072932      0.022912
Pd      7.12953      7.06741     12.01474         0.016267      0.004442      0.015569
Pd      6.54266      7.86867      8.52262         0.004778     -0.115850     -0.018455
Pd      7.22655      9.19416     13.47053         0.045606     -0.037480     -0.031714
Pd     11.34144      5.96161      9.22917        -0.032144      0.010722      0.112465
Pd     10.06629      9.67403      6.29148         0.028384     -0.022276      0.053038
Pd      9.04005     13.92856      9.35177         0.014733     -0.044056     -0.060512
Pd     10.95493      6.91039     11.61384        -0.031760      0.008140      0.006606
Pd     10.25453      9.19867      9.01512        -0.044950     -0.003592     -0.030237
Pd      9.22273     11.38244     10.40751        -0.158655      0.104141     -0.043273
Pd      8.92940      7.14907      9.77780         0.022015      0.082325     -0.180964
Pd      8.86256      7.15291     13.97911         0.072585     -0.030153     -0.144888
Pd      9.27723      8.93615     11.73446        -0.067739     -0.044887     -0.017480
Pd     12.32219     10.70831      8.22383        -0.015171     -0.018503     -0.089287
Pd      6.93871     12.07514      9.25384        -0.011118      0.076683      0.071227
Pd      8.05550     10.02367      8.03372        -0.029016     -0.134628      0.126433
Pd     13.92197      6.37165      8.51250         0.025371      0.039971      0.047037
Pd     13.46953      7.71428     12.27316        -0.121751      0.069344     -0.052709
Pd      9.18632     11.20216     13.12806         0.055601      0.056172      0.086198
Pd     14.22317     12.51752      8.74284        -0.182196     -0.087434      0.046664
Pd     13.37857     10.36617     12.80658        -0.303419      0.103786     -0.163546
Pd     14.25470     10.21106     10.20652        -0.099667     -0.062376      0.007495
Pd     11.52338     10.39786     11.07530         0.186748     -0.025435      0.044193
Pd     11.44363     12.91522      9.85046         0.081621      0.064648     -0.040448
Pd     13.60898     12.52266     11.38210        -0.001404      0.083795      0.050340
Pd     11.23929     12.72852     12.42420         0.126771     -0.066521     -0.035204
Pd     11.48639     11.24907     14.59371        -0.049932      0.043013      0.036238
Pd     11.28471      8.84571     13.39202         0.036441      0.107507      0.027275
Pd      9.44720      9.55867     15.17650         0.108738      0.040771      0.119135
Pd      8.79902     13.60089     11.98846         0.056607      0.009350     -0.028670
