152
# total energy = -1003.10240812 eVH     10.35389      5.87395      7.64558        -0.057770      0.176910      0.887056
H     10.62451     15.10445      7.64558        -0.199784     -0.125453      1.091457
H     10.62451      5.87395     13.33282        -0.037849     -0.003443     -0.973308
H     10.35389     15.10445     13.33282        -0.066619     -0.189274     -0.849280
H      7.64558     10.35389      5.87395         0.747628      0.225426     -0.146539
H      7.64558     10.62451     15.10445         0.810392      0.465225      0.017288
H     13.33282     10.62451      5.87395        -0.597544     -0.018846      0.179728
H     13.33282     10.35389     15.10445        -0.662139     -0.188580      0.041012
H      5.87395      7.64558     10.35389        -0.214469      2.007265      0.369830
H     15.10445      7.64558     10.62451        -0.030608      1.138858     -0.071646
H      5.87395     13.33282     10.62451         0.190677     -0.833456      0.031724
H     15.10445     13.33282     10.35389         0.061732     -1.121544     -0.234064
H      5.87395     10.35389      7.64558        -0.515085      0.238716      1.176213
H     15.10445     10.62451      7.64558         0.112644      0.675968      1.591603
H      5.87395     10.62451     13.33282        -0.074577      0.430175     -1.147417
H     15.10445     10.35389     13.33282         1.037939      0.072209     -1.101639
H     10.35389      7.64558      5.87395         0.396988      1.398157     -0.076123
H     10.62451      7.64558     15.10445         0.470843      0.985318     -0.030077
H     10.62451     13.33282      5.87395        -0.344132     -0.791809      0.056689
H     10.35389     13.33282     15.10445        -0.115092     -0.442545     -0.151068
H      7.64558      5.87395     10.35389         1.027953     -0.163859     -0.141549
H      7.64558     15.10445     10.62451         0.583630     -0.209690     -0.017774
H     13.33282      5.87395     10.62451        -0.970698      0.046965      0.337682
H     13.33282     15.10445     10.35389        -0.394908     -0.102832     -0.037305
H     12.45634     12.45634     19.01126         0.265820      0.234776     -0.245901
H     19.01126     19.01126     19.01126        -0.263678     -0.257000     -0.229780
H     19.01126     12.45634     12.45634        -0.260780      0.264822      0.232937
H     12.45634     19.01126     12.45634         0.262585     -0.267993      0.226264
C     10.35284      5.61067      6.59456        -0.153169     -0.977899     -0.912177
C     10.62556     15.36773      6.59456         0.099790      0.437348     -0.865656
C     10.62556      5.61067     14.38384        -0.138337     -0.680832      1.212449
C     10.35284     15.36773     14.38384         0.074133      0.299962      0.890754
C      6.59456     10.35284      5.61067        -1.398194      0.181070     -0.872733
C      6.59456     10.62556     15.36773        -0.964141      0.203063      0.689228
C     14.38384     10.62556      5.61067         1.184986      0.138470     -0.889562
C     14.38384     10.35284     15.36773         1.318150      0.061750      0.782316
C      5.61067      6.59456     10.35284        -0.818715     -1.132593      0.050989
C     15.36773      6.59456     10.62556         0.541367     -0.244407     -0.006775
C      5.61067     14.38384     10.62556        -0.393234      0.938820     -0.011059
C     15.36773     14.38384     10.35284         0.398722      1.371416     -0.011778
C      5.61067     10.35284      6.59456        -0.271972     -0.040116     -1.429804
C     15.36773     10.62556      6.59456         0.370860     -0.041880     -1.228366
C      5.61067     10.62556     14.38384        -0.359692     -0.017429      0.948979
C     15.36773     10.35284     14.38384         0.110670     -0.060902      1.669011
C     10.35284      6.59456      5.61067        -0.032647     -1.260011     -0.604732
C     10.62556      6.59456     15.36773        -0.042466     -0.840919      0.631118
C     10.62556     14.38384      5.61067        -0.004896      0.774600     -0.581934
C     10.35284     14.38384     15.36773        -0.029244      0.410711      0.354811
C      6.59456      5.61067     10.35284        -0.482808     -1.188659      0.146186
C      6.59456     15.36773     10.62556        -0.684366      0.484848      0.036258
C     14.38384      5.61067     10.62556         0.412408     -0.719993     -0.185195
C     14.38384     15.36773     10.35284         0.333160      0.526090     -0.046054
C     10.40319      3.19606      7.29314        -0.022700      0.317372     -0.960806
C     10.35913      4.25547      6.23373        -0.035606     -0.480712      0.170678
C      0.08601      7.29314      7.29314        -0.032498     -0.732476     -0.329406
C      0.13007      6.23373      6.23373        -0.020177      0.389995      0.504530
C      0.08601      3.19606      3.19606        -0.013043      0.540024      0.479269
C      0.13007      4.25547      4.25547        -0.001244     -0.506291     -0.378395
C     10.40319      7.29314      3.19606        -0.044312     -0.664777      0.235856
C     10.35913      6.23373      4.25547         0.020956      0.272571     -0.639135
C      7.29314     10.40319      3.19606        -0.575191     -0.008250      0.176921
C      6.23373     10.35913      4.25547         0.284883     -0.042524     -0.350354
C      7.29314      0.08601      7.29314        -0.809205     -0.077104     -0.327478
C      6.23373      0.13007      6.23373         0.602719     -0.199321      0.359093
C      3.19606      0.08601      3.19606         0.810615     -0.037616      0.245563
C      4.25547      0.13007      4.25547        -0.498145     -0.251679     -0.381314
C      3.19606     10.40319      7.29314         0.377036      0.004383     -0.164462
C      4.25547     10.35913      6.23373        -0.264774     -0.034173      0.334074
C      3.19606      7.29314     10.40319         0.307956     -0.447917      0.017994
C      4.25547      6.23373     10.35913        -0.893943      0.120571      0.066421
C      7.29314      7.29314      0.08601        -0.426051     -0.375206     -0.024095
C      6.23373      6.23373      0.13007         0.711512      0.077012      0.017650
C      3.19606      3.19606      0.08601         0.755350      0.349978     -0.024334
C      4.25547      4.25547      0.13007        -0.145090     -0.767497     -0.051922
C      7.29314      3.19606     10.40319        -0.460230      0.491911      0.009679
C      6.23373      4.25547     10.35913         0.372392     -0.751373      0.068995
O     10.43466      3.58206      8.50569         0.094938      0.266378      0.798587
O     10.54374     17.39634      8.50569         0.023475     -0.109563      0.361501
O     10.54374      3.58206     12.47271         0.074229      0.133316     -0.485639
O     10.43466     17.39634     12.47271        -0.033541     -0.099330     -0.348448
O      8.50569     10.43466      3.58206         0.644292     -0.070611      0.222460
O      8.50569     10.54374     17.39634         0.770904     -0.036194     -0.225739
O     12.47271     10.54374      3.58206        -0.765554      0.127065      0.271006
O     12.47271     10.43466     17.39634        -0.489705      0.010778     -0.200813
O      3.58206      8.50569     10.43466         0.187474      0.603450     -0.032599
O     17.39634      8.50569     10.54374        -0.152138      0.539011      0.036890
O      3.58206     12.47271     10.54374         0.087701     -0.439426      0.042219
O     17.39634     12.47271     10.43466        -0.156412     -0.585437     -0.032456
O      3.58206     10.43466      8.50569         0.155768     -0.021808      0.329384
O     17.39634     10.54374      8.50569        -0.044907      0.081759      0.333797
O      3.58206     10.54374     12.47271         0.061724      0.045275     -0.295177
O     17.39634     10.43466     12.47271        -0.086992     -0.025577     -0.267301
O     10.43466      8.50569      3.58206        -0.075044      0.675146      0.203029
O     10.54374      8.50569     17.39634        -0.053023      0.700889     -0.197389
O     10.54374     12.47271      3.58206         0.071677     -0.590976      0.135646
O     10.43466     12.47271     17.39634        -0.031826     -0.308627      0.000681
O      8.50569      3.58206     10.43466         0.635445      0.157791     -0.045178
O      8.50569     17.39634     10.54374         0.580267     -0.179602      0.019704
O     12.47271      3.58206     10.54374        -0.734604      0.117067      0.013386
O     12.47271     17.39634     10.43466        -0.544125     -0.133281     -0.033394
O     11.90042     11.90042     19.56718        -0.308246     -0.246818      0.261823
O     19.56718     19.56718     19.56718         0.301211      0.310690      0.244081
O     19.56718     11.90042     11.90042         0.323259     -0.298650     -0.248173
O     11.90042     19.56718     11.90042        -0.312483      0.338025     -0.229815
O      9.45224      1.03696      9.45224        -0.028972      0.105033     -0.094899
O      1.03696      9.45224      9.45224         0.049545     -0.023424     -0.100086
O      1.03696      1.03696      1.03696         0.037803      0.094158      0.096010
O      9.45224      9.45224      1.03696        -0.047730     -0.025623      0.112899
Zr     10.48920      2.52580     10.48920        -0.173840     -0.324223      0.166014
Zr     10.48920     18.45260     10.48920         0.083111      0.084266      0.032600
Zr     10.48920     10.48920      2.52580        -0.038232     -0.008818     -0.367860
Zr     10.48920     10.48920     18.45260         0.074256      0.002186      0.275447
Zr      2.52580     10.48920     10.48920        -0.102625     -0.133481     -0.015019
Zr     18.45260     10.48920     10.48920         0.097597      0.000098      0.006966
Pd     12.00405      8.48256     10.22548        -0.006621     -0.028595      0.004115
Pd      7.24145      9.77618     10.55923         0.008858     -0.090742     -0.001785
Pd      7.14699     12.03795     11.87872         0.072637      0.034071      0.028818
Pd     12.03099     13.47649      7.57177        -0.006314      0.060178     -0.001962
Pd     11.53522      8.14219      7.50028         0.134179      0.007779      0.090145
Pd      8.77643      7.37313      7.13368        -0.086316     -0.044325      0.056200
Pd     11.65190     11.25662      6.13392        -0.035070      0.086045     -0.041811
Pd     13.85969      9.23843      7.66183        -0.016331     -0.050639      0.025367
Pd      9.52982     11.91688      7.60971        -0.030152     -0.018842      0.091894
Pd      7.08345      7.26739     11.98770         0.028449      0.007937     -0.054745
Pd      6.98481      7.60606      8.89222         0.067541      0.020330     -0.224914
Pd      7.48777      9.43973     13.34298        -0.160445      0.165024      0.012936
Pd     11.35242      5.94334      9.24449         0.010987     -0.029782     -0.050360
Pd      9.63129      9.67670      6.10260         0.117788      0.071307      0.032556
Pd      9.29298     14.15711      9.04235        -0.085206     -0.033272     -0.008200
Pd     11.41442      6.47708     11.83135        -0.027265     -0.048414     -0.084498
Pd      9.78932      9.34976      9.02390         0.061346      0.016709      0.110588
Pd      9.35508     11.67831     10.27439        -0.068629     -0.063161      0.028107
Pd      9.29574      7.10128     10.35932        -0.013782     -0.099508     -0.109795
Pd      9.02556      7.27639     13.72914         0.068044     -0.029420     -0.042021
Pd      9.51916      9.26216     11.71575         0.018330     -0.101016      0.137826
Pd     11.89681     10.89646      8.74338         0.017534     -0.104106     -0.070469
Pd      7.12957     12.33841      9.10412         0.026798      0.017736      0.044025
Pd      7.64731      9.94740      7.94655        -0.088161      0.018024     -0.030003
Pd     13.77876      6.90908      8.79303        -0.030135      0.089245     -0.000696
Pd     13.79037      7.72910     12.18509        -0.049132      0.014696     -0.043110
Pd      9.44131     11.57090     13.10537         0.002794     -0.056175      0.027636
Pd     14.12951     12.30044      8.72473        -0.023095      0.031900      0.003144
Pd     13.47827     10.28359     12.77067         0.018626      0.035608     -0.060549
Pd     14.12995     10.01261     10.22786        -0.017528      0.023561      0.001452
Pd     11.52923     10.94988     11.39658        -0.033786      0.003423     -0.015839
Pd     11.56346     13.37130     10.14122        -0.041383     -0.099884     -0.023272
Pd     13.74468     12.49781     11.40580        -0.030716      0.067187      0.040195
Pd     11.70550     13.33174     12.85269        -0.095700     -0.015568     -0.143851
Pd     11.67712     11.26078     14.47158         0.005424      0.020905     -0.010715
Pd     11.47534      8.70851     13.28792        -0.076255      0.056729     -0.022059
Pd      9.63157      9.70149     15.03688        -0.102019     -0.106438      0.012929
Pd      9.26043     13.88464     11.73673         0.055355     -0.013296     -0.058737
