152
# total energy = -1060.21971821 eVH     10.35389      5.87395      7.64558        -0.326077      0.098447      1.099657
H     10.62451     15.10445      7.64558         0.054617     -0.064494      0.903906
H     10.62451      5.87395     13.33282        -0.265020      0.071905     -0.782265
H     10.35389     15.10445     13.33282         0.086365     -0.303881     -0.821770
H      7.64558     10.35389      5.87395         0.893735     -0.196416      0.206761
H      7.64558     10.62451     15.10445         0.313924     -0.030730     -0.058111
H     13.33282     10.62451      5.87395        -0.889140      0.223389      0.223400
H     13.33282     10.35389     15.10445        -0.283313     -0.027603     -0.063941
H      5.87395      7.64558     10.35389         0.093903      0.422696     -0.016951
H     15.10445      7.64558     10.62451        -0.036330      0.434641     -0.035058
H      5.87395     13.33282     10.62451        -0.026602     -0.965936      0.076270
H     15.10445     13.33282     10.35389        -0.071370     -0.327356      0.000649
H      5.87395     10.35389      7.64558         0.319757      0.061351      0.367382
H     15.10445     10.62451      7.64558        -0.120901     -0.162336      0.660991
H      5.87395     10.62451     13.33282        -0.059446      0.457606     -0.594951
H     15.10445     10.35389     13.33282         0.231461     -0.648842     -0.852370
H     10.35389      7.64558      5.87395        -0.025495      0.499147      0.345242
H     10.62451      7.64558     15.10445         0.346325      0.800696      0.003042
H     10.62451     13.33282      5.87395         0.156622     -0.561218      0.196428
H     10.35389     13.33282     15.10445         0.034539     -0.289821     -0.167729
H      7.64558      5.87395     10.35389         0.372861      0.113049      0.065312
H      7.64558     15.10445     10.62451         0.384026     -0.128413      0.179486
H     13.33282      5.87395     10.62451        -0.304900      0.135978     -0.013790
H     13.33282     15.10445     10.35389        -0.665285     -0.098573      0.131542
H     12.45634     12.45634     19.01126         0.259648      0.271463     -0.226761
H     19.01126     19.01126     19.01126        -0.246881     -0.269018     -0.244562
H     19.01126     12.45634     12.45634        -0.249452      0.271804      0.237489
H     12.45634     19.01126     12.45634         0.290136     -0.235961      0.234231
C     10.35284      5.61067      6.59456         0.407744     -0.430987     -1.366800
C     10.62556     15.36773      6.59456        -0.166071      0.604926     -0.656204
C     10.62556      5.61067     14.38384         0.364484     -0.280159      0.767929
C     10.35284     15.36773     14.38384        -0.202210      0.215869      1.019059
C      6.59456     10.35284      5.61067        -1.395318      0.033016     -0.236430
C      6.59456     10.62556     15.36773        -0.670488      0.065225      0.365707
C     14.38384     10.62556      5.61067         1.294064     -0.185803     -0.629257
C     14.38384     10.35284     15.36773         0.323653     -0.128393      0.339041
C      5.61067      6.59456     10.35284        -0.270901     -0.678365     -0.028426
C     15.36773      6.59456     10.62556         0.400891     -0.862892      0.031192
C      5.61067     14.38384     10.62556        -0.151285      1.193959     -0.217531
C     15.36773     14.38384     10.35284         0.515632      0.705387     -0.036353
C      5.61067     10.35284      6.59456        -0.376490     -0.104351     -0.790222
C     15.36773     10.62556      6.59456         0.416185      0.105364     -0.692219
C      5.61067     10.62556     14.38384        -0.425744     -0.167476      1.217520
C     15.36773     10.35284     14.38384         0.249020      0.220093      1.428096
C     10.35284      6.59456      5.61067        -0.070756     -0.746564     -0.561482
C     10.62556      6.59456     15.36773        -0.149262     -0.987430      0.374995
C     10.62556     14.38384      5.61067        -0.489419      0.367279     -0.741237
C     10.35284     14.38384     15.36773        -0.174678      0.772211      0.513811
C      6.59456      5.61067     10.35284        -0.566334     -0.332942      0.000040
C      6.59456     15.36773     10.62556        -0.371381      0.457497      0.060839
C     14.38384      5.61067     10.62556         0.432889     -0.303927      0.006767
C     14.38384     15.36773     10.35284         1.135726      0.499018     -0.077532
C     10.40319      3.19606      7.29314        -0.005858      0.738285     -0.318160
C     10.35913      4.25547      6.23373         0.018036     -0.375443      0.280155
C      0.08601      7.29314      7.29314        -0.023412     -0.374834     -0.503418
C      0.13007      6.23373      6.23373        -0.051387      0.888352      0.094132
C      0.08601      3.19606      3.19606        -0.007899      0.695624      0.263963
C      0.13007      4.25547      4.25547         0.043903     -0.266440     -0.546404
C     10.40319      7.29314      3.19606        -0.065277     -1.101974      0.589437
C     10.35913      6.23373      4.25547        -0.047059      0.328656     -0.186947
C      7.29314     10.40319      3.19606        -1.106603     -0.058057      0.201755
C      6.23373     10.35913      4.25547         0.380574      0.099851     -0.511548
C      7.29314      0.08601      7.29314        -0.454921      0.028935     -0.458566
C      6.23373      0.13007      6.23373         0.173771      0.123848      0.118543
C      3.19606      0.08601      3.19606         0.694782      0.023168      0.166164
C      4.25547      0.13007      4.25547        -0.165549     -0.048043     -0.365722
C      3.19606     10.40319      7.29314         0.358443     -0.026044     -0.952774
C      4.25547     10.35913      6.23373        -0.133048     -0.057703      0.112570
C      3.19606      7.29314     10.40319         0.610867     -0.401298      0.003357
C      4.25547      6.23373     10.35913        -0.120447      0.178224      0.014337
C      7.29314      7.29314      0.08601        -0.428809     -0.303541     -0.014775
C      6.23373      6.23373      0.13007         0.156866      0.149626     -0.058519
C      3.19606      3.19606      0.08601         0.299808      0.493858     -0.022112
C      4.25547      4.25547      0.13007        -0.402498     -0.243149     -0.029504
C      7.29314      3.19606     10.40319        -0.284406      0.598403     -0.010452
C      6.23373      4.25547     10.35913         0.017404     -0.096407      0.013537
O     10.43466      3.58206      8.50569        -0.026574      0.082724      0.298749
O     10.54374     17.39634      8.50569         0.067281     -0.123061      0.596382
O     10.54374      3.58206     12.47271         0.029575      0.101207     -0.401386
O     10.43466     17.39634     12.47271         0.095428     -0.061441     -0.411835
O      8.50569     10.43466      3.58206         0.754973     -0.075410      0.021958
O      8.50569     10.54374     17.39634         0.508183      0.059016     -0.102575
O     12.47271     10.54374      3.58206        -0.648336      0.108663      0.210717
O     12.47271     10.43466     17.39634        -0.282697      0.005525      0.035295
O      3.58206      8.50569     10.43466         0.036201      0.445759     -0.058709
O     17.39634      8.50569     10.54374        -0.053622      0.451744      0.055951
O      3.58206     12.47271     10.54374         0.102057     -0.591654      0.004809
O     17.39634     12.47271     10.43466        -0.180660     -0.743052     -0.055124
O      3.58206     10.43466      8.50569         0.213322     -0.059374      0.814496
O     17.39634     10.54374      8.50569        -0.086278      0.076604      0.507979
O      3.58206     10.54374     12.47271        -0.001491     -0.005675     -0.255968
O     17.39634     10.43466     12.47271         0.044718     -0.010685     -0.225404
O     10.43466      8.50569      3.58206        -0.107748      0.513884     -0.104482
O     10.54374      8.50569     17.39634         0.056046      0.513425     -0.089908
O     10.54374     12.47271      3.58206         0.102530     -0.642735      0.128269
O     10.43466     12.47271     17.39634        -0.070044     -0.666817     -0.263910
O      8.50569      3.58206     10.43466         0.396313      0.021664     -0.045281
O      8.50569     17.39634     10.54374         0.643577     -0.152191      0.046465
O     12.47271      3.58206     10.54374        -0.524245      0.121076      0.026799
O     12.47271     17.39634     10.43466        -0.623040     -0.124361      0.037786
O     11.90042     11.90042     19.56718        -0.280934     -0.305443      0.223231
O     19.56718     19.56718     19.56718         0.308575      0.324968      0.296761
O     19.56718     11.90042     11.90042         0.284237     -0.326898     -0.236542
O     11.90042     19.56718     11.90042        -0.314392      0.229560     -0.199488
O      9.45224      1.03696      9.45224        -0.071723      0.082175     -0.085581
O      1.03696      9.45224      9.45224         0.095403     -0.103517     -0.063758
O      1.03696      1.03696      1.03696         0.079354      0.051665      0.099215
O      9.45224      9.45224      1.03696        -0.057666     -0.125858      0.136347
Zr     10.48920      2.52580     10.48920         0.047868     -0.087403      0.126313
Zr     10.48920     18.45260     10.48920        -0.183072      0.243843     -0.366574
Zr     10.48920     10.48920      2.52580         0.107599      0.367994     -0.348321
Zr     10.48920     10.48920     18.45260        -0.067451     -0.262345      0.237653
Zr      2.52580     10.48920     10.48920        -0.236432      0.134869      0.236247
Zr     18.45260     10.48920     10.48920         0.194630     -0.139375     -0.003871
Pd      9.35816     14.28499      9.32976         0.006958     -0.007240     -0.035486
Pd      8.58657     13.63150     13.04034         0.012524     -0.014790      0.008086
Pd     12.01671     14.40955      8.73945         0.019745     -0.010420      0.008484
Pd     12.77853     12.88307     10.66166        -0.045569      0.004468      0.025603
Pd     12.11805      7.20001     12.67874         0.012946     -0.018924     -0.002675
Pd     11.16791     14.89256     11.45990        -0.009164      0.011434     -0.015211
Pd     10.05576     12.53680     11.10688        -0.033023      0.070674     -0.016152
Pd     13.47838     12.15159      7.97822        -0.008716      0.018614      0.005455
Pd     11.47641     11.53731      6.11259         0.031910      0.028322      0.027646
Pd      7.94447      8.39338      7.52687         0.009030     -0.024141     -0.002711
Pd      8.72342     11.75584      6.84835         0.022634     -0.004964     -0.007143
Pd     10.33327      9.45508      8.14606        -0.055898     -0.034476      0.009546
Pd      8.50191     14.46217      6.80217         0.000782      0.006607     -0.010027
Pd     12.40194      9.00727      6.55482        -0.016250      0.015150      0.052381
Pd      9.71555      9.60710      5.57214        -0.003601      0.011298     -0.010089
Pd      6.79844      9.44571     12.13251         0.026080     -0.008757     -0.013712
Pd     12.17248      6.73985      7.95120         0.026572      0.009986     -0.008929
Pd      5.91774     10.48789      9.68362         0.001418      0.012715      0.007206
Pd      7.54892      7.24469     13.41149        -0.023441     -0.016689     -0.013691
Ir     11.74727      9.78557     13.06419        -0.022862      0.020524      0.005311
Ir     13.55642      9.05212     11.47018         0.002174      0.014748      0.013859
Ir      9.43474      8.85898     14.00744        -0.009593     -0.058768     -0.025136
Ir     10.50335     11.05370     14.84750         0.010990      0.014829      0.034431
Ir      7.27056     12.01830     11.33651        -0.013947      0.002295      0.008609
Ir     14.66187     10.89704     10.13059         0.015107      0.025427     -0.002429
Ir     12.16429     10.57200      9.68590        -0.002143     -0.018468     -0.025452
Ir      8.72569     10.98521     12.98988         0.086719      0.025201      0.020068
Ir     10.10877      9.91432     11.18538         0.029108      0.010489     -0.066222
Ir     13.76285     11.41665     12.46259        -0.030159     -0.039801      0.069131
Ir     11.63803     12.37506     13.08136        -0.143382     -0.033875      0.002112
Ir      8.50202     11.09656      9.33849         0.081358     -0.017147      0.043183
Ir     11.58905      8.03068     10.14131        -0.079312      0.010262      0.071377
Ir      7.21030     13.02406      8.65109        -0.010561      0.015544      0.003104
Ir      9.54581      6.96222      9.23973         0.003967      0.015074      0.013176
Ir      8.05528      8.76390     10.06157        -0.022414      0.002367     -0.004057
Ir     10.72230     12.12328      8.50911        -0.063631      0.052568     -0.019560
Ir      9.51221      7.56772     11.75689         0.006230      0.008229     -0.006329
Ir     13.65794      8.79547      8.83213         0.051018     -0.003460      0.009658
