152
# total energy = -1022.87826920 eVH     10.35389      5.87395      7.64558         0.479903      0.031577      0.895240
H     10.62451     15.10445      7.64558        -0.052651      0.039075      0.776946
H     10.62451      5.87395     13.33282         0.146314      0.116557     -0.610034
H     10.35389     15.10445     13.33282        -0.259544     -0.079446     -0.563364
H      7.64558     10.35389      5.87395         0.331511     -0.034520      0.190480
H      7.64558     10.62451     15.10445         0.616124     -0.192019     -0.140801
H     13.33282     10.62451      5.87395        -0.848203     -0.312128      0.171948
H     13.33282     10.35389     15.10445        -0.451299     -0.082849     -0.067837
H      5.87395      7.64558     10.35389         0.129675      1.121414     -0.155981
H     15.10445      7.64558     10.62451        -0.169950      0.405334     -0.087314
H      5.87395     13.33282     10.62451         0.143459     -0.407837     -0.071714
H     15.10445     13.33282     10.35389        -0.079909     -0.971869     -0.178059
H      5.87395     10.35389      7.64558         0.129913      0.041950      0.482622
H     15.10445     10.62451      7.64558         0.117277     -0.202062      0.832390
H      5.87395     10.62451     13.33282         0.265069     -0.029902     -0.394758
H     15.10445     10.35389     13.33282        -0.151267      0.014233     -0.615335
H     10.35389      7.64558      5.87395         0.064892      0.860561      0.121229
H     10.62451      7.64558     15.10445         0.024897      0.550899     -0.144541
H     10.62451     13.33282      5.87395         0.055303     -0.599962      0.186102
H     10.35389     13.33282     15.10445        -0.252990     -0.887869     -0.107673
H      7.64558      5.87395     10.35389         0.522476      0.044756     -0.129351
H      7.64558     15.10445     10.62451         0.911238     -0.213360      0.282397
H     13.33282      5.87395     10.62451        -0.438694      0.186408     -0.059140
H     13.33282     15.10445     10.35389        -0.971785     -0.105094      0.246883
H     12.45634     12.45634     19.01126         0.266447      0.257563     -0.224974
H     19.01126     19.01126     19.01126        -0.247567     -0.234919     -0.262407
H     19.01126     12.45634     12.45634        -0.240680      0.270488      0.239129
H     12.45634     19.01126     12.45634         0.211783     -0.282457      0.252450
C     10.35284      5.61067      6.59456        -0.126158     -0.437902     -0.381044
C     10.62556     15.36773      6.59456         0.024725      0.345700     -1.163044
C     10.62556      5.61067     14.38384        -0.030575     -0.218359      0.730373
C     10.35284     15.36773     14.38384         0.173548      0.777396      0.163952
C      6.59456     10.35284      5.61067        -0.411195     -0.039554     -0.179355
C      6.59456     10.62556     15.36773        -0.789071      0.151254      0.349361
C     14.38384     10.62556      5.61067         0.605191      0.287702     -0.376703
C     14.38384     10.35284     15.36773         0.726427     -0.118731      0.424134
C      5.61067      6.59456     10.35284        -0.425032     -0.747176      0.285763
C     15.36773      6.59456     10.62556         0.195300     -0.467130      0.047476
C      5.61067     14.38384     10.62556        -0.249983      0.377327     -0.025602
C     15.36773     14.38384     10.35284         0.399559      0.130540      0.167099
C      5.61067     10.35284      6.59456        -0.307769     -0.014915     -0.886250
C     15.36773     10.62556      6.59456         0.575547     -0.162771     -1.235755
C      5.61067     10.62556     14.38384        -0.453113      0.007525      0.874442
C     15.36773     10.35284     14.38384         0.518981     -0.178436      1.241285
C     10.35284      6.59456      5.61067        -0.042748     -0.901184     -0.663885
C     10.62556      6.59456     15.36773         0.043918     -0.655830      0.291902
C     10.62556     14.38384      5.61067         0.047061      1.235520     -0.682840
C     10.35284     14.38384     15.36773         0.107006      0.601273      0.654059
C      6.59456      5.61067     10.35284        -0.206779     -0.893089      0.128962
C      6.59456     15.36773     10.62556        -1.718296      0.491366      0.049708
C     14.38384      5.61067     10.62556         0.587946     -0.228003     -0.007752
C     14.38384     15.36773     10.35284         0.097832      0.565406     -0.247681
C     10.40319      3.19606      7.29314         0.015155      0.901417     -0.254125
C     10.35913      4.25547      6.23373        -0.052365     -0.375607      0.603430
C      0.08601      7.29314      7.29314        -0.008796     -0.239464     -0.471227
C      0.13007      6.23373      6.23373         0.005142      0.117970      0.210944
C      0.08601      3.19606      3.19606        -0.016311      0.643523      0.182747
C      0.13007      4.25547      4.25547        -0.090762     -0.199741     -0.169982
C     10.40319      7.29314      3.19606        -0.002278     -0.693956      0.529410
C     10.35913      6.23373      4.25547        -0.009888      0.501000     -0.414268
C      7.29314     10.40319      3.19606        -0.339374      0.023259      0.862352
C      6.23373     10.35913      4.25547         0.209628      0.012714     -0.140919
C      7.29314      0.08601      7.29314        -0.309838     -0.045926     -0.275122
C      6.23373      0.13007      6.23373         0.270585     -0.058639      0.297783
C      3.19606      0.08601      3.19606         0.447692     -0.051800      1.282999
C      4.25547      0.13007      4.25547        -0.114685     -0.029546     -0.462892
C      3.19606     10.40319      7.29314         0.705098      0.014408     -0.263930
C      4.25547     10.35913      6.23373        -0.134323      0.031098      0.103411
C      3.19606      7.29314     10.40319         0.608772     -1.271259      0.024049
C      4.25547      6.23373     10.35913        -0.712328      0.847418      0.050260
C      7.29314      7.29314      0.08601        -0.658842     -0.171897     -0.021842
C      6.23373      6.23373      0.13007         0.173900      0.267887     -0.007772
C      3.19606      3.19606      0.08601         0.242604      0.251517     -0.019321
C      4.25547      4.25547      0.13007        -0.054944     -0.036624      0.010971
C      7.29314      3.19606     10.40319        -0.372098      0.804549      0.014190
C      6.23373      4.25547     10.35913         0.890002     -0.154824      0.007425
O     10.43466      3.58206      8.50569        -0.049091      0.033979      0.322623
O     10.54374     17.39634      8.50569        -0.025102     -0.181430      0.601585
O     10.54374      3.58206     12.47271         0.054710      0.062434     -0.323873
O     10.43466     17.39634     12.47271        -0.022840     -0.125584     -0.584205
O      8.50569     10.43466      3.58206         0.379251     -0.025218     -0.014952
O      8.50569     10.54374     17.39634         0.471547      0.052802     -0.143121
O     12.47271     10.54374      3.58206        -0.294029      0.046657     -0.071321
O     12.47271     10.43466     17.39634        -0.854407      0.020086     -0.226467
O      3.58206      8.50569     10.43466         0.044258      0.927815      0.038619
O     17.39634      8.50569     10.54374        -0.038950      0.337808      0.077934
O      3.58206     12.47271     10.54374         0.063749     -0.421687      0.064288
O     17.39634     12.47271     10.43466        -0.170707     -0.784249      0.021265
O      3.58206     10.43466      8.50569        -0.056421     -0.066989      0.224914
O     17.39634     10.54374      8.50569        -0.136353      0.042696      0.461163
O      3.58206     10.54374     12.47271        -0.011902     -0.051187     -0.887710
O     17.39634     10.43466     12.47271        -0.198274      0.043729     -0.768071
O     10.43466      8.50569      3.58206         0.045652      0.681113      0.190107
O     10.54374      8.50569     17.39634         0.054101      0.435804     -0.080429
O     10.54374     12.47271      3.58206        -0.006907     -0.730361      0.225905
O     10.43466     12.47271     17.39634         0.048045     -0.851091     -0.274563
O      8.50569      3.58206     10.43466         0.490194      0.072964     -0.038080
O      8.50569     17.39634     10.54374         0.656470     -0.253982     -0.061845
O     12.47271      3.58206     10.54374        -0.484415      0.163536      0.039554
O     12.47271     17.39634     10.43466        -0.529985     -0.036237     -0.028832
O     11.90042     11.90042     19.56718        -0.304169     -0.312365      0.264004
O     19.56718     19.56718     19.56718         0.286858      0.271381      0.320655
O     19.56718     11.90042     11.90042         0.278999     -0.330680     -0.244621
O     11.90042     19.56718     11.90042        -0.230552      0.290002     -0.241332
O      9.45224      1.03696      9.45224        -0.074823      0.047103     -0.067079
O      1.03696      9.45224      9.45224         0.052735     -0.146525     -0.059159
O      1.03696      1.03696      1.03696         0.041335      0.034222      0.187917
O      9.45224      9.45224      1.03696        -0.040940     -0.092808      0.121799
Zr     10.48920      2.52580     10.48920        -0.007700     -0.073643     -0.024329
Zr     10.48920     18.45260     10.48920         0.063327      0.309372     -0.071032
Zr     10.48920     10.48920      2.52580        -0.098470      0.014731     -0.374180
Zr     10.48920     10.48920     18.45260        -0.135185     -0.150883      0.331374
Zr      2.52580     10.48920     10.48920        -0.352426      0.314563     -0.457552
Zr     18.45260     10.48920     10.48920         0.244880      0.036510     -0.264974
Pd      9.03741     10.25354     13.33070        -0.019806     -0.031465      0.010111
Pd     10.58289      9.72151     10.97044        -0.014504     -0.002719     -0.067953
Pd     13.76543      8.53988     12.68251         0.007995      0.004966     -0.012687
Pd     11.00124     11.06758     15.01584        -0.002745     -0.016731      0.007564
Pd     12.85614     11.17700     13.01124         0.059019      0.002034      0.036743
Pd     14.98583     10.94208     11.34149         0.019401      0.014944     -0.004670
Pd      6.65016      7.44816     12.34128        -0.005524      0.015879      0.006607
Pd      9.23080      7.26919     10.11051         0.006180      0.008521     -0.037628
Pd      9.26849      7.59980     12.78855         0.012281     -0.003906     -0.018529
Pd     11.69902      7.28713     11.46067         0.003485      0.005876     -0.014152
Pd     11.41316      7.99252      8.85775         0.038032      0.018351     -0.016775
Pd      7.26523     11.83328     11.94994        -0.005036      0.002342     -0.019426
Pd      8.91603     14.68016      9.34018         0.044917      0.004827      0.014997
Pd      8.41762     12.65054     14.31822        -0.023152     -0.002677      0.027741
Pd     13.56987     14.10771      8.53682         0.073876      0.007620     -0.051095
Pd     11.01713     13.35665      8.53610         0.094939      0.038121      0.028636
Pd     14.09507     11.53491      8.92558        -0.017263      0.036925     -0.017300
Pd      8.62508     14.10324     12.10190        -0.000974      0.009623     -0.007172
Pd     12.24168     13.72542     14.02529        -0.005417      0.003092      0.015121
Pd     11.16783     14.42900     11.17151         0.028563      0.011143      0.045297
Pd     14.05568     13.55373     12.17277        -0.003641      0.014568     -0.004825
Pd     12.31069     12.14717     10.67462         0.011068     -0.027320     -0.008078
Pd     12.67756     12.34646      6.70724         0.005219      0.038732      0.017344
Pd     13.67687      8.94276      7.92695         0.022650      0.009657      0.007245
Pd      6.86561      8.46443      8.85102         0.024498      0.028136     -0.008997
Pd      5.52899      9.94615     11.24567         0.006454      0.033832     -0.061096
Pd      9.16142      9.73272      8.30502         0.023892     -0.013194     -0.019214
Pd      8.80785      7.23227      7.44895        -0.021276     -0.013513     -0.026720
Pd      9.53553     12.08498     10.42226         0.022199      0.007794     -0.013050
Pd     11.54485     10.71639      8.56182         0.014680     -0.002830     -0.060683
Pd     11.26561      9.22787      6.43380         0.033493     -0.005453      0.014366
Pd      9.92081     11.54202      6.38185         0.022552     -0.040971     -0.002207
Ir     11.35134      9.10753     13.34656        -0.007622     -0.025170     -0.001365
Ir     13.07870      9.49284     10.39271         0.010885     -0.021297     -0.018102
Ir     10.53067     12.34973     12.71319        -0.012014     -0.019398     -0.000063
Ir      7.16815     10.98524      9.49395         0.049712      0.006301     -0.034571
Ir      8.43411     12.46979      8.17856         0.056922     -0.005145      0.015129
Ir      8.06760      9.29976     11.11507         0.007785      0.004191     -0.008225
