152
# total energy = -1024.34150528 eVH     10.35389      5.87395      7.64558         0.477017      0.035013      0.749973
H     10.62451     15.10445      7.64558         0.028939     -0.193507      0.605657
H     10.62451      5.87395     13.33282         0.098495      0.160007     -0.571816
H     10.35389     15.10445     13.33282        -0.445876     -0.046489     -0.767313
H      7.64558     10.35389      5.87395         0.339695      0.015286      0.165833
H      7.64558     10.62451     15.10445         0.899398     -0.297516      0.001381
H     13.33282     10.62451      5.87395        -0.756799     -0.059479      0.155656
H     13.33282     10.35389     15.10445        -0.878120     -0.401805      0.204639
H      5.87395      7.64558     10.35389         0.196973      0.691997     -0.209125
H     15.10445      7.64558     10.62451        -0.139077      0.395457     -0.034977
H      5.87395     13.33282     10.62451         0.159625     -0.526128     -0.116620
H     15.10445     13.33282     10.35389        -0.086929     -1.191273      0.037287
H      5.87395     10.35389      7.64558         0.136970      0.148434      0.521894
H     15.10445     10.62451      7.64558         0.000271      0.111387      1.033905
H      5.87395     10.62451     13.33282         0.096175     -0.051350     -0.429097
H     15.10445     10.35389     13.33282        -0.136232     -0.169283     -0.511993
H     10.35389      7.64558      5.87395         0.067045      0.984215      0.229819
H     10.62451      7.64558     15.10445         0.005632      0.273745     -0.171464
H     10.62451     13.33282      5.87395        -0.099056     -0.413821      0.323144
H     10.35389     13.33282     15.10445        -0.448672     -0.619650     -0.013050
H      7.64558      5.87395     10.35389         0.489784      0.109530     -0.024646
H      7.64558     15.10445     10.62451         0.915581     -0.245276     -0.107001
H     13.33282      5.87395     10.62451        -0.587541      0.124063     -0.073781
H     13.33282     15.10445     10.35389        -0.600540     -0.054892      0.230405
H     12.45634     12.45634     19.01126         0.235986      0.278032     -0.236119
H     19.01126     19.01126     19.01126        -0.251207     -0.247201     -0.242915
H     19.01126     12.45634     12.45634        -0.264764      0.266231      0.220340
H     12.45634     19.01126     12.45634         0.235102     -0.265550      0.239796
C     10.35284      5.61067      6.59456        -0.196833     -0.657039      0.073432
C     10.62556     15.36773      6.59456        -0.032316      0.385286     -0.804808
C     10.62556      5.61067     14.38384        -0.007369     -0.059383      0.692325
C     10.35284     15.36773     14.38384         0.166406      0.716301      0.182360
C      6.59456     10.35284      5.61067        -0.349013     -0.020849     -0.288129
C      6.59456     10.62556     15.36773        -1.037445      0.311998      0.327826
C     14.38384     10.62556      5.61067         0.415889      0.344333     -0.648437
C     14.38384     10.35284     15.36773         1.006442      0.000074      0.301316
C      5.61067      6.59456     10.35284        -0.362795     -0.401651      0.357452
C     15.36773      6.59456     10.62556         0.193360     -0.514731      0.023632
C      5.61067     14.38384     10.62556        -0.199382      0.591096      0.012482
C     15.36773     14.38384     10.35284         0.348062      0.054500     -0.161346
C      5.61067     10.35284      6.59456        -0.316082     -0.076374     -0.988917
C     15.36773     10.62556      6.59456         0.830696     -0.334450     -0.959751
C      5.61067     10.62556     14.38384        -0.460665      0.022930      0.279310
C     15.36773     10.35284     14.38384         0.660357     -0.095401      1.085753
C     10.35284      6.59456      5.61067        -0.246614     -0.571667     -0.891200
C     10.62556      6.59456     15.36773         0.053807     -0.279371      0.055814
C     10.62556     14.38384      5.61067         0.089738      1.202252     -0.429636
C     10.35284     14.38384     15.36773         0.240096      0.144175      0.708765
C      6.59456      5.61067     10.35284        -0.261448     -0.740449      0.104090
C      6.59456     15.36773     10.62556        -1.209889      0.266380      0.125095
C     14.38384      5.61067     10.62556         0.974053     -0.289121      0.030081
C     14.38384     15.36773     10.35284        -0.519326      0.784630     -0.391966
C     10.40319      3.19606      7.29314        -0.021951      0.851169     -0.398674
C     10.35913      4.25547      6.23373         0.054394     -0.488329      0.557413
C      0.08601      7.29314      7.29314        -0.019847     -0.460109     -0.348453
C      0.13007      6.23373      6.23373        -0.020640      0.016561      0.100090
C      0.08601      3.19606      3.19606         0.004528      1.253369      0.189877
C      0.13007      4.25547      4.25547        -0.048963     -0.218097     -0.211085
C     10.40319      7.29314      3.19606        -0.007761     -1.031715      0.379186
C     10.35913      6.23373      4.25547         0.031941      0.465288     -0.654829
C      7.29314     10.40319      3.19606        -0.335219      0.038315      0.739871
C      6.23373     10.35913      4.25547         0.182025      0.082637     -0.102077
C      7.29314      0.08601      7.29314        -0.609775     -0.023664     -0.267463
C      6.23373      0.13007      6.23373         0.383065     -0.077628      0.479681
C      3.19606      0.08601      3.19606         0.963434     -0.009170      0.285127
C      4.25547      0.13007      4.25547        -0.118012     -0.040445     -0.512126
C      3.19606     10.40319      7.29314         0.428519     -0.009875     -0.884606
C      4.25547     10.35913      6.23373        -0.268636      0.100265      0.253135
C      3.19606      7.29314     10.40319         0.499759     -1.319081     -0.043178
C      4.25547      6.23373     10.35913        -0.467803      0.786108      0.091826
C      7.29314      7.29314      0.08601        -0.400288     -0.221699     -0.004530
C      6.23373      6.23373      0.13007         0.159802      0.147626     -0.006932
C      3.19606      3.19606      0.08601         0.248521      0.260708     -0.018075
C      4.25547      4.25547      0.13007        -0.112275     -0.054814      0.013441
C      7.29314      3.19606     10.40319        -0.374828      0.660597      0.008358
C      6.23373      4.25547     10.35913         1.118438     -0.019281      0.037905
O     10.43466      3.58206      8.50569        -0.028057      0.050703      0.443666
O     10.54374     17.39634      8.50569        -0.006026     -0.096428      0.443795
O     10.54374      3.58206     12.47271         0.042002     -0.101483     -0.136212
O     10.43466     17.39634     12.47271        -0.057955     -0.050326     -0.474833
O      8.50569     10.43466      3.58206         0.303727     -0.032859     -0.033665
O      8.50569     10.54374     17.39634         0.692870      0.025196     -0.180593
O     12.47271     10.54374      3.58206        -0.766585     -0.041357      0.148846
O     12.47271     10.43466     17.39634        -0.358066     -0.026049      0.001076
O      3.58206      8.50569     10.43466         0.150841      1.080026     -0.021554
O     17.39634      8.50569     10.54374        -0.092668      0.418222      0.060331
O      3.58206     12.47271     10.54374         0.068904     -0.404698      0.038670
O     17.39634     12.47271     10.43466        -0.162276     -0.688708     -0.003098
O      3.58206     10.43466      8.50569         0.048318     -0.071986      0.741119
O     17.39634     10.54374      8.50569        -0.067547      0.045129      0.341961
O      3.58206     10.54374     12.47271        -0.012031      0.033699     -0.265053
O     17.39634     10.43466     12.47271        -0.248003      0.010361     -0.714204
O     10.43466      8.50569      3.58206         0.114544      0.825032      0.197512
O     10.54374      8.50569     17.39634         0.035793      0.654598     -0.156678
O     10.54374     12.47271      3.58206        -0.002553     -1.014058      0.188261
O     10.43466     12.47271     17.39634        -0.029423     -0.906092     -0.202906
O      8.50569      3.58206     10.43466         0.543324      0.113397     -0.016928
O      8.50569     17.39634     10.54374         0.521068     -0.205467     -0.011884
O     12.47271      3.58206     10.54374        -0.467044      0.156862      0.056688
O     12.47271     17.39634     10.43466        -0.404521      0.028325     -0.006976
O     11.90042     11.90042     19.56718        -0.268384     -0.327363      0.255657
O     19.56718     19.56718     19.56718         0.281866      0.288256      0.284958
O     19.56718     11.90042     11.90042         0.296908     -0.302233     -0.202281
O     11.90042     19.56718     11.90042        -0.269272      0.283402     -0.247832
O      9.45224      1.03696      9.45224        -0.081136      0.048204     -0.058391
O      1.03696      9.45224      9.45224         0.037506     -0.160754     -0.118996
O      1.03696      1.03696      1.03696         0.015091      0.118108      0.204668
O      9.45224      9.45224      1.03696        -0.065777     -0.086786      0.123132
Zr     10.48920      2.52580     10.48920        -0.040833     -0.117325     -0.168352
Zr     10.48920     18.45260     10.48920         0.019703      0.222404     -0.025978
Zr     10.48920     10.48920      2.52580        -0.133054     -0.184719     -0.528199
Zr     10.48920     10.48920     18.45260        -0.038249      0.017261      0.464871
Zr      2.52580     10.48920     10.48920        -0.358720      0.292656      0.162624
Zr     18.45260     10.48920     10.48920         0.203792      0.047316     -0.221359
Pd      8.47411      9.82922     13.24163        -0.086687     -0.056942     -0.040335
Pd     10.51842      9.48575     10.22114         0.122483     -0.038862     -0.055340
Pd     13.22486      8.72418     12.46084        -0.072367      0.036150      0.024364
Pd     10.39711     10.70666     15.06856        -0.045098     -0.009335      0.003478
Pd     12.90421     11.34607     13.50495         0.035292     -0.001503      0.030543
Pd     14.88220     10.68264     11.33259         0.042607      0.007239      0.008854
Pd      6.84758      7.70691     12.37575         0.034377      0.007166     -0.016325
Pd      9.21638      7.23358      9.52012         0.009597     -0.013645      0.020158
Pd      9.53435      7.55981     12.24601        -0.020732      0.006808      0.006281
Pd     11.74048      7.14041     10.86932         0.027663      0.017837     -0.022361
Pd     11.62337      7.83193      8.29405         0.004904      0.046971      0.069359
Pd      7.15358     11.72532     11.57259         0.005144     -0.006082      0.032393
Pd      9.24844     14.32398      9.31472         0.011558      0.002791      0.012651
Pd      8.13705     12.37847     14.13114         0.037307     -0.044187     -0.054527
Pd     14.22808     14.22582      8.32920        -0.052650     -0.020828      0.032595
Pd     11.72086     13.34689      8.81540        -0.000380     -0.061321     -0.025885
Pd     14.10440     11.65959      8.97545         0.020176     -0.063738      0.033783
Pd      8.72003     13.96724     12.08101         0.050263     -0.067427     -0.011290
Pd     12.20467     13.94413     13.95552         0.008242      0.026111      0.024615
Pd     11.38259     14.11048     11.33460        -0.007760     -0.006201      0.003441
Pd     14.00954     13.35502     12.08540         0.014082      0.000961      0.006568
Pd     12.27779     11.55462     10.89252         0.016930     -0.013405     -0.073546
Pd     12.95995     12.63726      6.59521         0.009387     -0.007283      0.028810
Pd     13.95359      8.84200      7.57667        -0.013073      0.006608      0.027041
Pd      6.97489      8.47340      8.44298         0.003647      0.011715      0.004110
Pd      5.55320     10.04879     10.11222         0.033944     -0.004232     -0.001721
Pd      9.39720      9.47145      7.51561         0.024090      0.028843     -0.019165
Pd      8.49285      6.98337      6.93323        -0.006716      0.007937     -0.043507
Pd      9.64499     11.93666     10.55678         0.111993      0.127744      0.180035
Pd     11.80607     10.63242      8.06710        -0.092500      0.017487      0.004481
Pd     11.77060      8.95413      5.88351        -0.026062     -0.012688     -0.027235
Pd     10.56484     11.34130      5.76168        -0.017602      0.000412      0.053863
Ir     10.94075      9.73315     12.71057         0.005667     -0.017800      0.020051
Ir     13.17893      9.28689      9.95981        -0.085150     -0.012162     -0.051684
Ir     10.49676     12.18616     12.92995        -0.083191      0.076562     -0.125434
Ir      7.73770     11.02956      9.07118        -0.220992     -0.133816      0.053566
Ir      9.57169     12.08396      8.00215         0.163605      0.029239     -0.182030
Ir      8.04441      9.26656     10.75925        -0.116102     -0.089973      0.018246
