152
# total energy = -1060.08241220 eVH     10.35389      5.87395      7.64558        -0.298802      0.068423      1.124902
H     10.62451     15.10445      7.64558         0.055373     -0.071265      0.931445
H     10.62451      5.87395     13.33282        -0.272892      0.061043     -0.795189
H     10.35389     15.10445     13.33282         0.074808     -0.305499     -0.859393
H      7.64558     10.35389      5.87395         0.929915     -0.151857      0.190633
H      7.64558     10.62451     15.10445         0.328000     -0.036868     -0.069901
H     13.33282     10.62451      5.87395        -0.866940      0.195107      0.224610
H     13.33282     10.35389     15.10445        -0.276620     -0.019851     -0.069272
H      5.87395      7.64558     10.35389         0.089108      0.428465     -0.008895
H     15.10445      7.64558     10.62451         0.002349      0.452275     -0.068600
H      5.87395     13.33282     10.62451        -0.004720     -0.958800      0.091546
H     15.10445     13.33282     10.35389        -0.048937     -0.327339     -0.006563
H      5.87395     10.35389      7.64558         0.290913      0.098755      0.389797
H     15.10445     10.62451      7.64558        -0.117618     -0.176798      0.672202
H      5.87395     10.62451     13.33282        -0.072306      0.458255     -0.616256
H     15.10445     10.35389     13.33282         0.257729     -0.654652     -0.830548
H     10.35389      7.64558      5.87395        -0.047496      0.492908      0.340781
H     10.62451      7.64558     15.10445         0.311973      0.816261      0.007648
H     10.62451     13.33282      5.87395         0.142699     -0.562239      0.201776
H     10.35389     13.33282     15.10445         0.022198     -0.284953     -0.163104
H      7.64558      5.87395     10.35389         0.352916      0.103471      0.048231
H      7.64558     15.10445     10.62451         0.387344     -0.124843      0.168100
H     13.33282      5.87395     10.62451        -0.307417      0.134344     -0.017938
H     13.33282     15.10445     10.35389        -0.667265     -0.089903      0.127451
H     12.45634     12.45634     19.01126         0.256724      0.271828     -0.227898
H     19.01126     19.01126     19.01126        -0.245666     -0.268667     -0.246709
H     19.01126     12.45634     12.45634        -0.250732      0.271377      0.235424
H     12.45634     19.01126     12.45634         0.289612     -0.236783      0.233772
C     10.35284      5.61067      6.59456         0.400639     -0.419714     -1.398895
C     10.62556     15.36773      6.59456        -0.145438      0.579858     -0.643105
C     10.62556      5.61067     14.38384         0.373495     -0.318394      0.804035
C     10.35284     15.36773     14.38384        -0.218306      0.188534      1.082847
C      6.59456     10.35284      5.61067        -1.416012      0.032608     -0.242839
C      6.59456     10.62556     15.36773        -0.645238      0.064809      0.365090
C     14.38384     10.62556      5.61067         1.285566     -0.168370     -0.642731
C     14.38384     10.35284     15.36773         0.337837     -0.121744      0.345425
C      5.61067      6.59456     10.35284        -0.285829     -0.688193     -0.027437
C     15.36773      6.59456     10.62556         0.415074     -0.934668      0.054803
C      5.61067     14.38384     10.62556        -0.141498      1.167038     -0.208679
C     15.36773     14.38384     10.35284         0.503877      0.676713     -0.024440
C      5.61067     10.35284      6.59456        -0.381401     -0.096256     -0.731101
C     15.36773     10.62556      6.59456         0.427407      0.112761     -0.756767
C      5.61067     10.62556     14.38384        -0.394931     -0.170420      1.221085
C     15.36773     10.35284     14.38384         0.267442      0.193013      1.487046
C     10.35284      6.59456      5.61067        -0.056612     -0.741316     -0.600057
C     10.62556      6.59456     15.36773        -0.135757     -0.965287      0.368674
C     10.62556     14.38384      5.61067        -0.475635      0.389991     -0.733378
C     10.35284     14.38384     15.36773        -0.161624      0.714516      0.451281
C      6.59456      5.61067     10.35284        -0.550434     -0.351357      0.010344
C      6.59456     15.36773     10.62556        -0.397543      0.453905      0.058085
C     14.38384      5.61067     10.62556         0.436098     -0.329801      0.000073
C     14.38384     15.36773     10.35284         1.140128      0.522889     -0.069436
C     10.40319      3.19606      7.29314        -0.002948      0.708636     -0.329551
C     10.35913      4.25547      6.23373         0.011113     -0.410835      0.287512
C      0.08601      7.29314      7.29314        -0.016885     -0.358160     -0.508083
C      0.13007      6.23373      6.23373        -0.055041      0.896409      0.082463
C      0.08601      3.19606      3.19606        -0.004203      0.700285      0.264782
C      0.13007      4.25547      4.25547         0.038317     -0.271515     -0.536615
C     10.40319      7.29314      3.19606        -0.067215     -1.147234      0.571740
C     10.35913      6.23373      4.25547        -0.039036      0.361523     -0.193934
C      7.29314     10.40319      3.19606        -1.101057     -0.059132      0.188136
C      6.23373     10.35913      4.25547         0.371128      0.084912     -0.539710
C      7.29314      0.08601      7.29314        -0.414030      0.035019     -0.527285
C      6.23373      0.13007      6.23373         0.181843      0.126986      0.130431
C      3.19606      0.08601      3.19606         0.722646      0.030687      0.163115
C      4.25547      0.13007      4.25547        -0.169679     -0.042683     -0.366796
C      3.19606     10.40319      7.29314         0.367578     -0.023907     -0.914988
C      4.25547     10.35913      6.23373        -0.142890     -0.072608      0.096787
C      3.19606      7.29314     10.40319         0.595585     -0.397573      0.001287
C      4.25547      6.23373     10.35913        -0.111073      0.189425      0.007007
C      7.29314      7.29314      0.08601        -0.420283     -0.312731     -0.017768
C      6.23373      6.23373      0.13007         0.161073      0.181068     -0.046536
C      3.19606      3.19606      0.08601         0.290449      0.485993     -0.026098
C      4.25547      4.25547      0.13007        -0.390747     -0.225137     -0.041404
C      7.29314      3.19606     10.40319        -0.273043      0.583006     -0.010558
C      6.23373      4.25547     10.35913         0.017199     -0.089896      0.018849
O     10.43466      3.58206      8.50569        -0.026172      0.088069      0.316099
O     10.54374     17.39634      8.50569         0.064064     -0.133681      0.609025
O     10.54374      3.58206     12.47271         0.027470      0.102356     -0.392977
O     10.43466     17.39634     12.47271         0.091454     -0.051631     -0.393444
O      8.50569     10.43466      3.58206         0.733954     -0.068123      0.012289
O      8.50569     10.54374     17.39634         0.463854      0.057217     -0.076125
O     12.47271     10.54374      3.58206        -0.666451      0.109108      0.211718
O     12.47271     10.43466     17.39634        -0.280517      0.003018      0.023799
O      3.58206      8.50569     10.43466         0.038530      0.453381     -0.064754
O     17.39634      8.50569     10.54374        -0.054245      0.455563      0.056142
O      3.58206     12.47271     10.54374         0.109090     -0.590913      0.002572
O     17.39634     12.47271     10.43466        -0.171485     -0.727100     -0.055814
O      3.58206     10.43466      8.50569         0.210527     -0.063724      0.796315
O     17.39634     10.54374      8.50569        -0.112422      0.076506      0.577134
O      3.58206     10.54374     12.47271        -0.007468     -0.003844     -0.255800
O     17.39634     10.43466     12.47271         0.044701     -0.012277     -0.211750
O     10.43466      8.50569      3.58206        -0.099600      0.556108     -0.103690
O     10.54374      8.50569     17.39634         0.063631      0.502756     -0.087149
O     10.54374     12.47271      3.58206         0.105372     -0.640900      0.132901
O     10.43466     12.47271     17.39634        -0.063243     -0.664653     -0.256722
O      8.50569      3.58206     10.43466         0.397708      0.028248     -0.038153
O      8.50569     17.39634     10.54374         0.636728     -0.155227      0.047940
O     12.47271      3.58206     10.54374        -0.510926      0.122150      0.032221
O     12.47271     17.39634     10.43466        -0.618259     -0.133771      0.038788
O     11.90042     11.90042     19.56718        -0.276608     -0.308645      0.229158
O     19.56718     19.56718     19.56718         0.304976      0.322154      0.300803
O     19.56718     11.90042     11.90042         0.285381     -0.327610     -0.232262
O     11.90042     19.56718     11.90042        -0.315001      0.230775     -0.200711
O      9.45224      1.03696      9.45224        -0.075682      0.078476     -0.078838
O      1.03696      9.45224      9.45224         0.094540     -0.109818     -0.055410
O      1.03696      1.03696      1.03696         0.081515      0.052228      0.101304
O      9.45224      9.45224      1.03696        -0.057581     -0.129981      0.133398
Zr     10.48920      2.52580     10.48920         0.035821     -0.080340      0.093962
Zr     10.48920     18.45260     10.48920        -0.174121      0.260285     -0.353703
Zr     10.48920     10.48920      2.52580         0.110742      0.358863     -0.356480
Zr     10.48920     10.48920     18.45260        -0.086389     -0.235071      0.209423
Zr      2.52580     10.48920     10.48920        -0.245565      0.135150      0.232658
Zr     18.45260     10.48920     10.48920         0.214295     -0.115705      0.001578
Pd      9.38485     14.26199      9.37242         0.001622      0.015430     -0.040685
Pd      8.60584     13.67408     12.96482         0.004277     -0.003827      0.023153
Pd     12.02562     14.40279      8.72731         0.011913     -0.000577      0.005455
Pd     12.82935     12.86162     10.62443        -0.045040      0.005669      0.020539
Pd     12.11171      7.16698     12.66331         0.014086     -0.015095     -0.027451
Pd     11.22402     14.83018     11.51088        -0.027475      0.027508     -0.023939
Pd     10.11059     12.48410     11.11516        -0.045986      0.031274     -0.023200
Pd     13.47333     12.11609      7.97233         0.002995      0.015755      0.005966
Pd     11.47851     11.54108      6.10260         0.002239      0.003964      0.006201
Pd      7.89675      8.53566      7.52393         0.007294     -0.054324      0.016511
Pd      8.72749     11.74613      6.85956        -0.004250      0.007783     -0.002265
Pd     10.34472      9.45902      8.14164        -0.013788     -0.003417     -0.013400
Pd      8.51165     14.45571      6.84961        -0.004880      0.005484     -0.036102
Pd     12.37767      8.99339      6.52846         0.015651      0.012234      0.016757
Pd      9.72390      9.60920      5.56068        -0.001644      0.007876     -0.004737
Pd      6.84348      9.44292     12.17614        -0.012928      0.008513      0.002417
Pd     12.19328      6.70721      7.91613        -0.001826      0.011465      0.001833
Pd      5.92847     10.46415      9.72012        -0.008176     -0.001292     -0.001256
Pd      7.58773      7.19215     13.37784        -0.019312      0.013650      0.010548
Ir     11.78744      9.75489     13.04357        -0.020693     -0.018433      0.010153
Ir     13.56832      8.99085     11.43731        -0.010069      0.031387      0.008478
Ir      9.45976      8.84822     13.95077        -0.027415     -0.001493      0.033159
Ir     10.56734     11.02102     14.83351        -0.021772     -0.018344      0.023073
Ir      7.28981     12.01248     11.34732        -0.004330      0.002045     -0.012506
Ir     14.69201     10.82767     10.08056        -0.026767      0.037125      0.034210
Ir     12.16359     10.54719      9.70967         0.015713     -0.015043     -0.023357
Ir      8.76381     11.01125     13.00376        -0.003651     -0.001883     -0.004694
Ir     10.11461      9.87048     11.20163         0.004554      0.033610     -0.010454
Ir     13.79361     11.36705     12.40126        -0.023370      0.007396      0.042338
Ir     11.70293     12.35884     13.08204        -0.067802     -0.014679      0.005646
Ir      8.51402     11.07680      9.35289        -0.026275      0.032457     -0.009798
Ir     11.57663      7.99702     10.10799         0.015009      0.019801     -0.006327
Ir      7.22891     13.01380      8.67986         0.008699     -0.001059     -0.003768
Ir      9.51320      6.99461      9.14919        -0.001469     -0.004357      0.042036
Ir      8.04518      8.75395     10.07916         0.002167     -0.014211     -0.004287
Ir     10.73161     12.10723      8.51254        -0.008305      0.015315     -0.009194
Ir      9.52061      7.49631     11.69920        -0.003552      0.029248      0.041188
Ir     13.63624      8.77873      8.78868         0.007576      0.007797      0.031556
