26
# total energy = -169.64760635 eVH      0.37326      6.90823      7.50000        -0.009025     -0.008728     -0.000000
H      2.82256      2.06037      7.50000         0.016484      0.014929     -0.000000
H      6.19748      6.71967      7.50000        -0.013322     -0.007099     -0.000000
H      8.94072     -1.55339      7.50000         0.009025      0.008728     -0.000000
H      6.49142      3.29447      7.50000        -0.016484     -0.014929     -0.000000
H      3.11651     -1.36482      7.50000         0.013322      0.007099     -0.000000
C      8.50622      4.15916      7.50000         0.077065     -0.060052      0.000000
C      1.45132     -0.08498      7.50000         0.051601     -0.012781      0.000000
C      8.71041     -3.71492      7.50000        -0.020485      0.045589      0.000000
C      0.80777      1.19569      7.50000        -0.077065      0.060052     -0.000000
C      7.86266      5.43982      7.50000        -0.051601      0.012781      0.000000
C      0.60358      9.06977      7.50000         0.020485     -0.045589     -0.000000
C      8.20773     -2.36325      7.50000        -0.066287     -0.025212     -0.000000
C      7.54836      2.98351      7.50000         0.010422     -0.015774     -0.000000
C      2.85569     -0.31376      7.50000         0.015230     -0.015531      0.000000
C      1.10626      7.71810      7.50000         0.066287      0.025212     -0.000000
C      1.76562      2.37134      7.50000        -0.010422      0.015774     -0.000000
C      6.45829      5.66861      7.50000        -0.015230      0.015531      0.000000
O      6.96094     -2.07742      7.50000         0.034275      0.041003     -0.000000
O      7.81069      1.78058      7.50000         0.003442      0.022576     -0.000000
O      3.86934      0.51535      7.50000         0.004275      0.021787     -0.000000
O      2.35304      7.43227      7.50000        -0.034275     -0.041003     -0.000000
O      1.50329      3.57427      7.50000        -0.003442     -0.022576     -0.000000
O      5.44465      4.83950      7.50000        -0.004275     -0.021787     -0.000000
Au      5.61924     -0.56144      7.50000         0.042037      0.008973     -0.000000
Au      3.69474      5.91629      7.50000        -0.042037     -0.008973     -0.000000
