22
# total energy = -164.30068016 eVC      8.36354      1.71742      7.50000         0.009180      0.043066     -0.000000
C      0.71477      7.36089      7.50000        -0.009180     -0.043066      0.000000
C      7.36089      8.36354      7.50000        -0.043066      0.009180      0.000000
C      1.71742      0.71477      7.50000         0.043066     -0.009180     -0.000000
C      0.71477      1.71742      7.50000        -0.009180      0.043066      0.000000
C      8.36354      7.36089      7.50000         0.009180     -0.043066     -0.000000
C      1.71742      8.36354      7.50000         0.043066      0.009180      0.000000
C      7.36089      0.71477      7.50000        -0.043066     -0.009180      0.000000
O      7.85665      2.97192      7.50000        -0.003019     -0.021377      0.000000
O      1.22166      6.10639      7.50000         0.003019      0.021377     -0.000000
O      6.10639      7.85665      7.50000         0.021377     -0.003019     -0.000000
O      2.97192      1.22166      7.50000        -0.021377      0.003019      0.000000
O      1.22166      2.97192      7.50000         0.003019     -0.021377      0.000000
O      7.85665      6.10639      7.50000        -0.003019      0.021377     -0.000000
O      2.97192      7.85665      7.50000        -0.021377     -0.003019      0.000000
O      6.10639      1.22166      7.50000         0.021377      0.003019     -0.000000
Ir      0.00000      4.53916      7.50000         0.000000     -0.000000      0.000000
Ir      4.53916      0.00000      7.50000         0.000000     -0.000000      0.000000
Ir      3.38989      5.68842      7.50000        -0.008306      0.008306      0.000000
Ir      5.68842      3.38989      7.50000         0.008306     -0.008306      0.000000
Ir      3.38989      3.38989      7.50000        -0.008306     -0.008306      0.000000
Ir      5.68842      5.68842      7.50000         0.008306      0.008306      0.000000
