16
# total energy = -106.93429833 eVH      2.38799      1.05057      0.00000         0.000000     -0.165607      0.000000
H      2.38799     10.09913     -0.00000         0.000000      0.165607      0.000000
C      1.21116      8.33089      0.00000         0.196271     -0.452795      0.000000
C      3.56481      8.33089     -0.00000        -0.196271     -0.452795      0.000000
C      3.56481      2.81881     -0.00000        -0.196271      0.452795      0.000000
C      1.21116      2.81881      0.00000         0.196271      0.452795      0.000000
N      2.38799      9.05198      0.00000        -0.000000     -0.112228      0.000000
N      2.38799      2.09772     -0.00000         0.000000      0.112228     -0.000000
O      1.13210      4.05973     -0.00000         0.068782     -0.230482     -0.000000
O      3.64387      4.05973      0.00000        -0.068782     -0.230482      0.000000
O      3.64387      7.08997      0.00000        -0.068782      0.230482      0.000000
O      1.13210      7.08997     -0.00000         0.068782      0.230482     -0.000000
O     -0.00000      9.07773      0.00000         0.000000      0.383669     -0.000000
O     -0.00000      2.07197     -0.00000        -0.000000     -0.383669      0.000000
Ir     -0.00000      0.00000      0.00000         0.000000      0.000000      0.000000
Ir      2.38799      5.57485      0.00000         0.000000      0.000000      0.000000
