152
# total energy = -1023.27048912 eVH     10.35389      5.87395      7.64558         0.496734      0.084676      0.719721
H     10.62451     15.10445      7.64558        -0.087268     -0.071178      0.794960
H     10.62451      5.87395     13.33282         0.146248      0.130906     -0.634349
H     10.35389     15.10445     13.33282        -0.180642     -0.122137     -0.544810
H      7.64558     10.35389      5.87395         0.308586     -0.021498      0.188589
H      7.64558     10.62451     15.10445         0.668027     -0.222098     -0.126731
H     13.33282     10.62451      5.87395        -0.774012     -0.152264      0.203137
H     13.33282     10.35389     15.10445        -0.448085     -0.104547     -0.052679
H      5.87395      7.64558     10.35389         0.206345      1.058613     -0.250774
H     15.10445      7.64558     10.62451        -0.175480      0.464626     -0.116282
H      5.87395     13.33282     10.62451         0.162395     -0.420629     -0.060800
H     15.10445     13.33282     10.35389        -0.129114     -0.920121      0.020730
H      5.87395     10.35389      7.64558         0.132081      0.098305      0.456590
H     15.10445     10.62451      7.64558         0.097566     -0.020064      1.070534
H      5.87395     10.62451     13.33282         0.185075     -0.027951     -0.379068
H     15.10445     10.35389     13.33282        -0.126499     -0.061102     -0.550133
H     10.35389      7.64558      5.87395         0.117074      0.862115      0.188360
H     10.62451      7.64558     15.10445        -0.006928      0.499506     -0.164301
H     10.62451     13.33282      5.87395        -0.012647     -0.572585      0.215546
H     10.35389     13.33282     15.10445        -0.314753     -0.889382     -0.132246
H      7.64558      5.87395     10.35389         0.447293      0.096793     -0.036051
H      7.64558     15.10445     10.62451         0.825117     -0.277887      0.028451
H     13.33282      5.87395     10.62451        -0.448537      0.186522     -0.065596
H     13.33282     15.10445     10.35389        -0.655331     -0.097893      0.169206
H     12.45634     12.45634     19.01126         0.252089      0.264926     -0.229880
H     19.01126     19.01126     19.01126        -0.252552     -0.231352     -0.261121
H     19.01126     12.45634     12.45634        -0.234733      0.272500      0.240386
H     12.45634     19.01126     12.45634         0.225010     -0.263210      0.249594
C     10.35284      5.61067      6.59456        -0.202040     -0.360669     -0.027394
C     10.62556     15.36773      6.59456         0.064406      0.369205     -1.192469
C     10.62556      5.61067     14.38384        -0.059562     -0.248246      0.808212
C     10.35284     15.36773     14.38384         0.041789      0.861599      0.399244
C      6.59456     10.35284      5.61067        -0.364351     -0.037775     -0.179305
C      6.59456     10.62556     15.36773        -0.863612      0.214512      0.375845
C     14.38384     10.62556      5.61067         0.476169      0.300482     -0.511030
C     14.38384     10.35284     15.36773         0.775812     -0.110912      0.438435
C      5.61067      6.59456     10.35284        -0.320095     -0.631280      0.434935
C     15.36773      6.59456     10.62556         0.162238     -0.507199      0.079542
C      5.61067     14.38384     10.62556        -0.147737      0.389903     -0.023612
C     15.36773     14.38384     10.35284         0.378750     -0.047888     -0.096014
C      5.61067     10.35284      6.59456        -0.261206     -0.022889     -0.782677
C     15.36773     10.62556      6.59456         0.611189     -0.288174     -1.346729
C      5.61067     10.62556     14.38384        -0.345081     -0.004600      0.399747
C     15.36773     10.35284     14.38384         0.493128     -0.162388      1.140704
C     10.35284      6.59456      5.61067        -0.173783     -0.474353     -0.457662
C     10.62556      6.59456     15.36773         0.053054     -0.599810      0.270503
C     10.62556     14.38384      5.61067         0.093580      0.985375     -0.491203
C     10.35284     14.38384     15.36773         0.260762      0.576452      0.529174
C      6.59456      5.61067     10.35284        -0.141884     -0.826435      0.076629
C      6.59456     15.36773     10.62556        -1.499775      0.411337      0.119866
C     14.38384      5.61067     10.62556         0.642294     -0.271033     -0.015303
C     14.38384     15.36773     10.35284        -0.427817      0.682252     -0.320850
C     10.40319      3.19606      7.29314         0.008525      0.832549     -0.297238
C     10.35913      4.25547      6.23373        -0.044118     -0.476536      0.497374
C      0.08601      7.29314      7.29314        -0.008023     -0.264260     -0.515712
C      0.13007      6.23373      6.23373         0.025134      0.137122      0.197101
C      0.08601      3.19606      3.19606        -0.012551      0.599052      0.195484
C      0.13007      4.25547      4.25547        -0.091582     -0.174163     -0.191128
C     10.40319      7.29314      3.19606        -0.007385     -0.648055      0.552475
C     10.35913      6.23373      4.25547        -0.038308      0.273746     -0.603466
C      7.29314     10.40319      3.19606        -0.298444      0.028492      0.943081
C      6.23373     10.35913      4.25547         0.167403      0.033582     -0.126469
C      7.29314      0.08601      7.29314        -0.323008     -0.035836     -0.300758
C      6.23373      0.13007      6.23373         0.337988     -0.052727      0.331284
C      3.19606      0.08601      3.19606         0.526970     -0.030584      0.676223
C      4.25547      0.13007      4.25547        -0.094309     -0.030934     -0.366558
C      3.19606     10.40319      7.29314         0.708842      0.001494     -0.424353
C      4.25547     10.35913      6.23373        -0.157530      0.030618      0.085522
C      3.19606      7.29314     10.40319         0.668817     -1.297652     -0.013873
C      4.25547      6.23373     10.35913        -0.651197      0.899942      0.073652
C      7.29314      7.29314      0.08601        -0.685925     -0.187036     -0.015354
C      6.23373      6.23373      0.13007         0.211936      0.190730      0.019290
C      3.19606      3.19606      0.08601         0.269768      0.304112     -0.020005
C      4.25547      4.25547      0.13007        -0.067377     -0.042641     -0.003464
C      7.29314      3.19606     10.40319        -0.366613      0.989256      0.015646
C      6.23373      4.25547     10.35913         1.074433     -0.016027      0.009078
O     10.43466      3.58206      8.50569        -0.043699      0.048696      0.381757
O     10.54374     17.39634      8.50569        -0.041672     -0.171426      0.587600
O     10.54374      3.58206     12.47271         0.049286      0.073800     -0.325225
O     10.43466     17.39634     12.47271        -0.012013     -0.135908     -0.622594
O      8.50569     10.43466      3.58206         0.326650     -0.033309     -0.033721
O      8.50569     10.54374     17.39634         0.480950      0.044081     -0.147034
O     12.47271     10.54374      3.58206        -0.484848      0.006670      0.092561
O     12.47271     10.43466     17.39634        -0.786990      0.000018     -0.184823
O      3.58206      8.50569     10.43466         0.113474      1.053978      0.013824
O     17.39634      8.50569     10.54374        -0.027630      0.311845      0.072365
O      3.58206     12.47271     10.54374         0.074335     -0.475649      0.048741
O     17.39634     12.47271     10.43466        -0.174237     -0.884104      0.055021
O      3.58206     10.43466      8.50569        -0.061049     -0.068002      0.341054
O     17.39634     10.54374      8.50569        -0.127556      0.041070      0.458274
O      3.58206     10.54374     12.47271         0.090691     -0.019150     -0.631774
O     17.39634     10.43466     12.47271        -0.190086      0.057068     -0.789899
O     10.43466      8.50569      3.58206         0.030676      0.646657      0.163037
O     10.54374      8.50569     17.39634         0.063230      0.442867     -0.080555
O     10.54374     12.47271      3.58206        -0.007229     -0.698626      0.221674
O     10.43466     12.47271     17.39634         0.031976     -0.852956     -0.240147
O      8.50569      3.58206     10.43466         0.449708      0.026791     -0.039888
O      8.50569     17.39634     10.54374         0.698130     -0.261279     -0.062430
O     12.47271      3.58206     10.54374        -0.459805      0.148618      0.041350
O     12.47271     17.39634     10.43466        -0.550368     -0.016978     -0.005539
O     11.90042     11.90042     19.56718        -0.292314     -0.314644      0.254403
O     19.56718     19.56718     19.56718         0.284470      0.262134      0.309335
O     19.56718     11.90042     11.90042         0.259680     -0.323489     -0.245527
O     11.90042     19.56718     11.90042        -0.272383      0.277135     -0.268249
O      9.45224      1.03696      9.45224        -0.080920      0.042127     -0.072528
O      1.03696      9.45224      9.45224         0.017109     -0.169232     -0.097957
O      1.03696      1.03696      1.03696         0.005463      0.067553      0.174213
O      9.45224      9.45224      1.03696        -0.061517     -0.103737      0.105849
Zr     10.48920      2.52580     10.48920        -0.001075     -0.096395     -0.043064
Zr     10.48920     18.45260     10.48920         0.132292      0.361523      0.009905
Zr     10.48920     10.48920      2.52580         0.013223     -0.016163     -0.367811
Zr     10.48920     10.48920     18.45260        -0.160121     -0.051136      0.378490
Zr      2.52580     10.48920     10.48920        -0.351523      0.245007     -0.099669
Zr     18.45260     10.48920     10.48920         0.273676     -0.007402     -0.284305
Pd      8.95391     10.10395     13.31677        -0.009515     -0.010101      0.024642
Pd     10.66874      9.68760     10.82168        -0.050428     -0.028364     -0.050714
Pd     13.70578      8.38573     12.58554         0.000868      0.073401     -0.023363
Pd     10.98513     10.89297     14.97087        -0.030113     -0.021792      0.006633
Pd     12.90637     11.02633     12.97329         0.060495     -0.014640      0.045247
Pd     15.10384     11.07103     11.31546        -0.011479     -0.033980      0.013951
Pd      6.58474      7.73444     12.33456        -0.012893      0.006105      0.029749
Pd      9.30773      7.27429      9.85583         0.015990      0.029098     -0.020714
Pd      9.21582      7.46389     12.61910         0.022843     -0.019824     -0.013483
Pd     11.62349      7.15616     11.41357        -0.002647      0.014364     -0.021749
Pd     11.71030      7.97281      8.89623        -0.012615      0.001866     -0.055410
Pd      7.38567     11.76922     11.76150        -0.031088      0.000484     -0.004457
Pd      9.22106     14.76534      9.44964         0.022239      0.053335      0.045098
Pd      8.39059     12.54177     14.24658        -0.005022     -0.021568     -0.029721
Pd     14.09555     14.24494      8.31444         0.029979      0.003274      0.004082
Pd     11.51656     13.63525      8.73287        -0.049622      0.031616      0.026231
Pd     14.16706     11.68317      8.89647        -0.001770     -0.001057      0.010462
Pd      8.73465     14.02484     12.06259         0.000625     -0.021790      0.042997
Pd     12.25984     13.49567     14.13676        -0.001232      0.030627     -0.015756
Pd     11.35411     14.41136     11.44615         0.005661     -0.017814      0.013796
Pd     14.08047     13.58250     12.26551        -0.021815     -0.009110      0.019371
Pd     12.42288     12.15227     10.72709         0.008682     -0.063373      0.013927
Pd     12.75044     12.51329      6.69437         0.015317     -0.011723     -0.046241
Pd     13.94236      8.99345      7.98838        -0.017753      0.009014      0.007134
Pd      6.93964      8.49077      8.75110         0.008788      0.001247     -0.020159
Pd      5.62826     10.10373     10.67391         0.005263      0.012743     -0.049795
Pd      9.39637      9.44316      8.09395         0.026044     -0.040035     -0.026890
Pd      8.55629      7.00675      7.23479        -0.007236     -0.021543     -0.027791
Pd      9.76189     12.12808     10.34589         0.040524     -0.016023      0.011804
Pd     11.64482     10.79734      8.49930        -0.019915     -0.044190     -0.076559
Pd     11.59389      9.09103      6.45829         0.015917     -0.002668     -0.004571
Pd     10.08807     11.34928      6.35696        -0.025532      0.051809      0.029556
Ir     11.27291      9.01428     13.19387        -0.037338      0.069979     -0.029611
Ir     13.20792      9.61161     10.38469         0.028940     -0.098388     -0.064774
Ir     10.55585     12.19298     12.72511        -0.102569      0.008483      0.050682
Ir      7.62636     11.00006      9.22999        -0.076732     -0.144112      0.064425
Ir      8.81713     12.65181      8.08328         0.155447     -0.040267     -0.182130
Ir      8.17815      9.29569     11.00024         0.032976      0.021566     -0.050011
