152
# total energy = -1061.42996031 eVH     10.35389      5.87395      7.64558        -0.131556      0.121335      0.982215
H     10.62451     15.10445      7.64558         0.313523     -0.087969      0.805970
H     10.62451      5.87395     13.33282        -0.127670      0.083845     -0.490870
H     10.35389     15.10445     13.33282         0.084255     -0.195419     -0.397451
H      7.64558     10.35389      5.87395         0.902565      0.133973      0.211865
H      7.64558     10.62451     15.10445         0.203833     -0.017900     -0.064657
H     13.33282     10.62451      5.87395        -0.645870     -0.006881      0.166148
H     13.33282     10.35389     15.10445        -0.322046     -0.070049     -0.061418
H      5.87395      7.64558     10.35389         0.140048      0.354979     -0.057605
H     15.10445      7.64558     10.62451        -0.133194      0.529637      0.221709
H      5.87395     13.33282     10.62451         0.126178     -0.584373      0.059526
H     15.10445     13.33282     10.35389        -0.237401     -0.425511      0.087111
H      5.87395     10.35389      7.64558         0.176889      0.214283      0.364808
H     15.10445     10.62451      7.64558        -0.153758     -0.299363      0.653596
H      5.87395     10.62451     13.33282         0.035954      0.119105     -0.711923
H     15.10445     10.35389     13.33282         0.082102     -0.263806     -0.715751
H     10.35389      7.64558      5.87395        -0.103020      0.433516      0.240915
H     10.62451      7.64558     15.10445         0.412296      0.661702     -0.104694
H     10.62451     13.33282      5.87395         0.182301     -0.584223      0.109436
H     10.35389     13.33282     15.10445         0.201744     -0.737269     -0.073070
H      7.64558      5.87395     10.35389         0.462256      0.155876     -0.114659
H      7.64558     15.10445     10.62451         0.429531     -0.163633      0.378455
H     13.33282      5.87395     10.62451        -0.375255      0.157162     -0.067167
H     13.33282     15.10445     10.35389        -0.557219     -0.268248      0.122633
H     12.45634     12.45634     19.01126         0.235423      0.264588     -0.244742
H     19.01126     19.01126     19.01126        -0.260354     -0.262503     -0.226813
H     19.01126     12.45634     12.45634        -0.232719      0.271190      0.240915
H     12.45634     19.01126     12.45634         0.280503     -0.210752      0.252550
C     10.35284      5.61067      6.59456         0.287477     -0.288487     -0.847147
C     10.62556     15.36773      6.59456        -0.221688      0.638234     -0.294180
C     10.62556      5.61067     14.38384         0.270440     -0.321195      0.514149
C     10.35284     15.36773     14.38384        -0.119416      0.266151      0.270947
C      6.59456     10.35284      5.61067        -0.865012     -0.127200     -0.214636
C      6.59456     10.62556     15.36773        -0.542128      0.051092      0.347266
C     14.38384     10.62556      5.61067         0.881332     -0.040844     -0.605659
C     14.38384     10.35284     15.36773         0.271948     -0.088029      0.369461
C      5.61067      6.59456     10.35284        -0.385233     -0.388402      0.056111
C     15.36773      6.59456     10.62556         0.287168     -0.621233     -0.111175
C      5.61067     14.38384     10.62556        -0.159453      0.537863     -0.314014
C     15.36773     14.38384     10.35284         0.399940      0.807089     -0.103855
C      5.61067     10.35284      6.59456        -0.275368     -0.135207     -0.136493
C     15.36773     10.62556      6.59456         0.225688      0.254470     -0.525716
C      5.61067     10.62556     14.38384        -0.347424     -0.024713      1.210620
C     15.36773     10.35284     14.38384         0.298855     -0.055822      0.982940
C     10.35284      6.59456      5.61067         0.070165     -0.293798     -0.461204
C     10.62556      6.59456     15.36773        -0.014993     -0.858782      0.224384
C     10.62556     14.38384      5.61067        -0.402987      0.051629     -0.827671
C     10.35284     14.38384     15.36773        -0.242899      0.911072      0.236282
C      6.59456      5.61067     10.35284        -0.369967     -0.275516      0.222617
C      6.59456     15.36773     10.62556        -0.454615      0.563579      0.003185
C     14.38384      5.61067     10.62556         0.439043     -0.333145      0.063334
C     14.38384     15.36773     10.35284         0.892911      0.267118     -0.058705
C     10.40319      3.19606      7.29314         0.003470      0.562293     -0.311305
C     10.35913      4.25547      6.23373        -0.001965     -0.496763      0.434783
C      0.08601      7.29314      7.29314        -0.014331     -0.909033     -0.515309
C      0.13007      6.23373      6.23373        -0.160754      0.867955      0.151317
C      0.08601      3.19606      3.19606        -0.013974      0.367651      0.378242
C      0.13007      4.25547      4.25547         0.056788     -0.181819     -0.623231
C     10.40319      7.29314      3.19606        -0.048932     -1.103232      0.786196
C     10.35913      6.23373      4.25547         0.011363      0.335888     -0.192777
C      7.29314     10.40319      3.19606        -1.171536     -0.078009      0.343257
C      6.23373     10.35913      4.25547         0.270424      0.028008     -0.645645
C      7.29314      0.08601      7.29314        -0.894982     -0.003778     -0.413838
C      6.23373      0.13007      6.23373         0.281548      0.044961      0.129280
C      3.19606      0.08601      3.19606         0.324079     -0.002046      0.414272
C      4.25547      0.13007      4.25547        -0.285009     -0.041603     -0.171448
C      3.19606     10.40319      7.29314         0.500752     -0.045502     -1.015868
C      4.25547     10.35913      6.23373        -0.293082     -0.059810      0.107066
C      3.19606      7.29314     10.40319         1.003453     -0.494054      0.004714
C      4.25547      6.23373     10.35913        -0.159685      0.166071      0.000482
C      7.29314      7.29314      0.08601        -0.439466     -0.280622     -0.006385
C      6.23373      6.23373      0.13007         0.224772      0.089625     -0.138469
C      3.19606      3.19606      0.08601         0.342755      0.770316     -0.009437
C      4.25547      4.25547      0.13007        -0.451967     -0.199336      0.048707
C      7.29314      3.19606     10.40319        -0.204451      0.539048      0.021637
C      6.23373      4.25547     10.35913         0.015815     -0.313945      0.031705
O     10.43466      3.58206      8.50569        -0.022471      0.133656      0.370512
O     10.54374     17.39634      8.50569         0.051649      0.066212      0.311357
O     10.54374      3.58206     12.47271         0.042343      0.202542     -0.569961
O     10.43466     17.39634     12.47271         0.027644     -0.000594     -0.432323
O      8.50569     10.43466      3.58206         0.749724     -0.071248      0.042859
O      8.50569     10.54374     17.39634         0.884859      0.023244     -0.159879
O     12.47271     10.54374      3.58206        -0.344454      0.040918      0.070670
O     12.47271     10.43466     17.39634        -0.375283     -0.033663      0.046863
O      3.58206      8.50569     10.43466        -0.075135      0.328707     -0.078477
O     17.39634      8.50569     10.54374        -0.112809      0.441933      0.037424
O      3.58206     12.47271     10.54374         0.137164     -0.764399     -0.011374
O     17.39634     12.47271     10.43466        -0.247684     -0.655738     -0.014324
O      3.58206     10.43466      8.50569         0.126651     -0.040200      0.795479
O     17.39634     10.54374      8.50569         0.023962      0.042621      0.307391
O      3.58206     10.54374     12.47271         0.071094      0.017760     -0.462750
O     17.39634     10.43466     12.47271         0.015981      0.017971     -0.282741
O     10.43466      8.50569      3.58206        -0.065555      0.596398     -0.069409
O     10.54374      8.50569     17.39634         0.020719      0.909813     -0.215834
O     10.54374     12.47271      3.58206         0.062789     -0.362502      0.087785
O     10.43466     12.47271     17.39634        -0.058209     -0.639116     -0.195877
O      8.50569      3.58206     10.43466         0.338548      0.070799     -0.051565
O      8.50569     17.39634     10.54374         0.519701     -0.141460      0.003196
O     12.47271      3.58206     10.54374        -0.384437      0.072521      0.032520
O     12.47271     17.39634     10.43466        -0.778915     -0.116127      0.059205
O     11.90042     11.90042     19.56718        -0.249116     -0.281751      0.235246
O     19.56718     19.56718     19.56718         0.293657      0.298315      0.244688
O     19.56718     11.90042     11.90042         0.231177     -0.300302     -0.282606
O     11.90042     19.56718     11.90042        -0.276780      0.179785     -0.264413
O      9.45224      1.03696      9.45224        -0.118992      0.105137     -0.081770
O      1.03696      9.45224      9.45224         0.145359     -0.137862     -0.169423
O      1.03696      1.03696      1.03696         0.134603      0.200295     -0.001805
O      9.45224      9.45224      1.03696        -0.212756     -0.158870      0.049161
Zr     10.48920      2.52580     10.48920         0.012632     -0.240131      0.158204
Zr     10.48920     18.45260     10.48920        -0.292474      0.272928     -0.192698
Zr     10.48920     10.48920      2.52580         0.309437      0.431938     -0.223022
Zr     10.48920     10.48920     18.45260         0.029418      0.009570      0.493257
Zr      2.52580     10.48920     10.48920        -0.555811      0.057014      0.328261
Zr     18.45260     10.48920     10.48920         0.274427     -0.163842      0.019567
Pd      9.11039     14.53806      9.20566         0.049235      0.041413      0.013711
Pd      8.40756     13.24277     13.79491         0.026556     -0.019561     -0.004161
Pd     12.07870     14.14821      8.68352         0.050468      0.014490     -0.008664
Pd     12.29030     12.76274     10.89685        -0.033337     -0.021249      0.004833
Pd     11.83022      7.08432     12.00845        -0.001284      0.042810     -0.046233
Pd     11.07991     15.32404     10.90451         0.021202     -0.033603     -0.000488
Pd      9.64498     13.12257     11.43209        -0.056456     -0.018468      0.040948
Pd     14.01136     12.42503      8.07602         0.020004      0.024525      0.031831
Pd     11.62290     11.74504      6.79669        -0.022321      0.029865     -0.057749
Pd      7.54619      8.52082      7.21884        -0.029395      0.017143     -0.020086
Pd      8.67826     11.98773      6.91593         0.032523     -0.033264      0.002636
Pd      9.82588      9.84480      8.03971        -0.052246      0.032691     -0.004156
Pd      8.48351     14.62602      6.54910         0.018144      0.038482      0.030053
Pd     12.14119      9.05814      6.88976        -0.024073     -0.014119     -0.003417
Pd      9.98667      9.97528      5.42421        -0.001443      0.019067      0.018738
Pd      6.93860      9.18314     12.19754         0.006300      0.018345     -0.000448
Pd     12.45076      6.54016      7.73232        -0.039746     -0.024952      0.010603
Pd      5.60315     10.61366     10.10443        -0.028228      0.005819     -0.018566
Pd      7.63857      6.64073     12.78104        -0.022528      0.015331     -0.024955
Ir     11.30268      9.56522     12.90796        -0.016621     -0.001235     -0.030144
Ir     13.11199      9.23025     11.17264        -0.094597     -0.008840      0.010758
Ir      9.17262      8.43459     13.81518        -0.038624      0.047133     -0.038719
Ir     10.26576     10.37681     15.13494         0.038907      0.061130     -0.042256
Ir      7.10094     11.86962     11.84680         0.039897      0.014212      0.004178
Ir     14.48135     11.13843     10.39543        -0.019817      0.087587     -0.065766
Ir     12.32897     10.60956      9.13228        -0.019204     -0.040213      0.020004
Ir      8.93169     10.80494     12.94278         0.007299      0.007973     -0.056585
Ir     10.04909     10.28525     10.67293         0.006659     -0.012594      0.030062
Ir     13.29956     11.24306     12.65281         0.042985     -0.010949      0.030781
Ir     11.10176     12.05232     13.41070         0.017875     -0.026790     -0.052600
Ir      7.97101     11.70272      9.52923         0.031722      0.031607      0.028147
Ir     11.34830      8.13896      9.53358         0.010649     -0.032220      0.005166
Ir      6.92540     13.44282      8.26718         0.044959      0.010199     -0.004680
Ir      9.14220      7.26473      8.85809        -0.059121      0.026433     -0.012499
Ir      7.80195      9.19168      9.73708         0.026362     -0.074065      0.009905
Ir     10.38484     12.29522      9.00796        -0.022967     -0.022801     -0.043993
Ir      9.37415      7.88837     11.31486        -0.034898      0.014690     -0.047895
Ir     13.80579      8.47413      8.87347        -0.015702      0.000230     -0.017511
