26
# total energy = -177.58604545 eVH      0.08941      6.30246      7.50000        -0.024902      0.008000      0.000000
H      2.97868      1.80375      7.50000        -0.045956      0.022291     -0.000000
H      5.45975      5.37204      7.50000         0.030919      0.028361     -0.000000
H      8.38230     -2.58882      7.50000         0.024902     -0.008000      0.000000
H      5.49303      1.90989      7.50000         0.045956     -0.022291     -0.000000
H      3.01196     -1.65840      7.50000        -0.030919     -0.028361      0.000000
C      7.55020      2.58224      7.50000        -0.030857     -0.023322     -0.000000
C      1.43402     -0.23536      7.50000        -0.031393     -0.045827      0.000000
C      7.96195     -4.70056      7.50000        -0.009672      0.002414      0.000000
C      0.92151      1.13141      7.50000         0.030857      0.023322      0.000000
C      7.03769      3.94901      7.50000         0.031393      0.045827      0.000000
C      0.50976      8.41421      7.50000         0.009672     -0.002414      0.000000
C      7.58349     -3.32614      7.50000         0.035547     -0.006165      0.000000
C      6.53338      1.57966      7.50000        -0.033032     -0.005647     -0.000000
C      2.79919     -0.58311      7.50000        -0.006831     -0.014168     -0.000000
C      0.88822      7.03978      7.50000        -0.035547      0.006165     -0.000000
C      1.93833      2.13398      7.50000         0.033032      0.005647     -0.000000
C      5.67252      4.29676      7.50000         0.006831      0.014168     -0.000000
O      6.39031     -2.81195      7.50000        -0.020794      0.017620     -0.000000
O      6.73315      0.29768      7.50000        -0.039835      0.001204      0.000000
O      3.89646      0.13097      7.50000         0.018351      0.000894      0.000000
O      2.08141      6.52560      7.50000         0.020794     -0.017620     -0.000000
O      1.73856      3.41596      7.50000         0.039835     -0.001204      0.000000
O      4.57525      3.58267      7.50000        -0.018351     -0.000894     -0.000000
Ir      5.42553     -1.15773      7.50000         0.002917      0.013902      0.000000
Ir      3.04618      4.87137      7.50000        -0.002917     -0.013902      0.000000
