152
# total energy = -1060.07597582 eVH     10.35389      5.87395      7.64558        -0.303792      0.074706      1.123899
H     10.62451     15.10445      7.64558         0.049105     -0.067015      0.935989
H     10.62451      5.87395     13.33282        -0.274448      0.057863     -0.796938
H     10.35389     15.10445     13.33282         0.069608     -0.305924     -0.861307
H      7.64558     10.35389      5.87395         0.927186     -0.154867      0.192083
H      7.64558     10.62451     15.10445         0.329047     -0.037474     -0.068181
H     13.33282     10.62451      5.87395        -0.868648      0.199129      0.227287
H     13.33282     10.35389     15.10445        -0.277324     -0.021613     -0.070710
H      5.87395      7.64558     10.35389         0.089120      0.431228     -0.009540
H     15.10445      7.64558     10.62451         0.005145      0.446515     -0.078230
H      5.87395     13.33282     10.62451        -0.001708     -0.960793      0.095310
H     15.10445     13.33282     10.35389        -0.034749     -0.332431     -0.008918
H      5.87395     10.35389      7.64558         0.291382      0.095660      0.387049
H     15.10445     10.62451      7.64558        -0.116155     -0.178030      0.671148
H      5.87395     10.62451     13.33282        -0.072401      0.462494     -0.615154
H     15.10445     10.35389     13.33282         0.262198     -0.664886     -0.822983
H     10.35389      7.64558      5.87395        -0.051226      0.494051      0.341162
H     10.62451      7.64558     15.10445         0.328924      0.823180      0.017467
H     10.62451     13.33282      5.87395         0.149708     -0.557761      0.197724
H     10.35389     13.33282     15.10445         0.018642     -0.285043     -0.166306
H      7.64558      5.87395     10.35389         0.356100      0.103706      0.052721
H      7.64558     15.10445     10.62451         0.386486     -0.126659      0.166429
H     13.33282      5.87395     10.62451        -0.307189      0.134938     -0.016647
H     13.33282     15.10445     10.35389        -0.673302     -0.077894      0.122525
H     12.45634     12.45634     19.01126         0.256573      0.271638     -0.228079
H     19.01126     19.01126     19.01126        -0.245126     -0.269131     -0.247108
H     19.01126     12.45634     12.45634        -0.250620      0.271796      0.235429
H     12.45634     19.01126     12.45634         0.289396     -0.237187      0.233335
C     10.35284      5.61067      6.59456         0.401349     -0.421472     -1.389569
C     10.62556     15.36773      6.59456        -0.139518      0.579707     -0.637023
C     10.62556      5.61067     14.38384         0.371238     -0.316282      0.796711
C     10.35284     15.36773     14.38384        -0.218667      0.176733      1.088594
C      6.59456     10.35284      5.61067        -1.424787      0.035108     -0.249063
C      6.59456     10.62556     15.36773        -0.648204      0.065810      0.367518
C     14.38384     10.62556      5.61067         1.279306     -0.169699     -0.644984
C     14.38384     10.35284     15.36773         0.336342     -0.119369      0.338962
C      5.61067      6.59456     10.35284        -0.285872     -0.697884     -0.028057
C     15.36773      6.59456     10.62556         0.412491     -0.934290      0.058021
C      5.61067     14.38384     10.62556        -0.141986      1.167849     -0.220016
C     15.36773     14.38384     10.35284         0.515936      0.687249     -0.023437
C      5.61067     10.35284      6.59456        -0.383051     -0.095505     -0.729719
C     15.36773     10.62556      6.59456         0.435952      0.109604     -0.765930
C      5.61067     10.62556     14.38384        -0.400245     -0.171623      1.222536
C     15.36773     10.35284     14.38384         0.273668      0.190061      1.501601
C     10.35284      6.59456      5.61067        -0.055380     -0.741778     -0.600554
C     10.62556      6.59456     15.36773        -0.139806     -0.982227      0.373121
C     10.62556     14.38384      5.61067        -0.474711      0.379802     -0.740802
C     10.35284     14.38384     15.36773        -0.160832      0.744144      0.458879
C      6.59456      5.61067     10.35284        -0.561014     -0.356783      0.006220
C      6.59456     15.36773     10.62556        -0.402078      0.457869      0.056967
C     14.38384      5.61067     10.62556         0.434146     -0.320908      0.001389
C     14.38384     15.36773     10.35284         1.148121      0.532569     -0.068369
C     10.40319      3.19606      7.29314        -0.002483      0.698928     -0.325376
C     10.35913      4.25547      6.23373         0.010623     -0.409985      0.284221
C      0.08601      7.29314      7.29314        -0.017924     -0.358123     -0.510762
C      0.13007      6.23373      6.23373        -0.052742      0.911151      0.085066
C      0.08601      3.19606      3.19606        -0.004891      0.702743      0.266247
C      0.13007      4.25547      4.25547         0.038547     -0.269938     -0.537147
C     10.40319      7.29314      3.19606        -0.067570     -1.149227      0.565738
C     10.35913      6.23373      4.25547        -0.038943      0.360744     -0.193305
C      7.29314     10.40319      3.19606        -1.109873     -0.060761      0.185645
C      6.23373     10.35913      4.25547         0.371703      0.084173     -0.535822
C      7.29314      0.08601      7.29314        -0.403349      0.035098     -0.533536
C      6.23373      0.13007      6.23373         0.181275      0.127382      0.132160
C      3.19606      0.08601      3.19606         0.726981      0.032088      0.162180
C      4.25547      0.13007      4.25547        -0.167884     -0.040353     -0.370776
C      3.19606     10.40319      7.29314         0.358399     -0.023567     -0.918554
C      4.25547     10.35913      6.23373        -0.140493     -0.072015      0.095628
C      3.19606      7.29314     10.40319         0.591972     -0.398735      0.000858
C      4.25547      6.23373     10.35913        -0.111399      0.192155      0.008779
C      7.29314      7.29314      0.08601        -0.421378     -0.313438     -0.018997
C      6.23373      6.23373      0.13007         0.159070      0.181089     -0.040067
C      3.19606      3.19606      0.08601         0.290405      0.486507     -0.026985
C      4.25547      4.25547      0.13007        -0.386890     -0.223040     -0.042770
C      7.29314      3.19606     10.40319        -0.270923      0.580079     -0.010683
C      6.23373      4.25547     10.35913         0.020607     -0.086117      0.018349
O     10.43466      3.58206      8.50569        -0.026157      0.090366      0.317887
O     10.54374     17.39634      8.50569         0.065090     -0.134762      0.614914
O     10.54374      3.58206     12.47271         0.027786      0.101476     -0.394688
O     10.43466     17.39634     12.47271         0.091108     -0.052245     -0.392091
O      8.50569     10.43466      3.58206         0.740917     -0.069763      0.010944
O      8.50569     10.54374     17.39634         0.452385      0.055876     -0.074806
O     12.47271     10.54374      3.58206        -0.668253      0.105680      0.213380
O     12.47271     10.43466     17.39634        -0.277019      0.004636      0.023635
O      3.58206      8.50569     10.43466         0.038792      0.452054     -0.063461
O     17.39634      8.50569     10.54374        -0.053893      0.456700      0.055617
O      3.58206     12.47271     10.54374         0.107681     -0.591816      0.002999
O     17.39634     12.47271     10.43466        -0.171083     -0.723440     -0.056802
O      3.58206     10.43466      8.50569         0.210720     -0.064893      0.800089
O     17.39634     10.54374      8.50569        -0.120249      0.076570      0.588148
O      3.58206     10.54374     12.47271        -0.008101     -0.004176     -0.252812
O     17.39634     10.43466     12.47271         0.048024     -0.012550     -0.206034
O     10.43466      8.50569      3.58206        -0.096908      0.551749     -0.102508
O     10.54374      8.50569     17.39634         0.061646      0.504585     -0.088667
O     10.54374     12.47271      3.58206         0.105584     -0.644303      0.132603
O     10.43466     12.47271     17.39634        -0.063332     -0.659982     -0.252077
O      8.50569      3.58206     10.43466         0.397675      0.028635     -0.038206
O      8.50569     17.39634     10.54374         0.637689     -0.155918      0.048272
O     12.47271      3.58206     10.54374        -0.511013      0.121591      0.031850
O     12.47271     17.39634     10.43466        -0.616348     -0.134656      0.037864
O     11.90042     11.90042     19.56718        -0.277011     -0.309515      0.229002
O     19.56718     19.56718     19.56718         0.304777      0.322937      0.301209
O     19.56718     11.90042     11.90042         0.285103     -0.328875     -0.232407
O     11.90042     19.56718     11.90042        -0.314523      0.230490     -0.200210
O      9.45224      1.03696      9.45224        -0.073742      0.075029     -0.081789
O      1.03696      9.45224      9.45224         0.091283     -0.108108     -0.057426
O      1.03696      1.03696      1.03696         0.081614      0.051363      0.101994
O      9.45224      9.45224      1.03696        -0.057464     -0.130594      0.133063
Zr     10.48920      2.52580     10.48920         0.036747     -0.076919      0.096235
Zr     10.48920     18.45260     10.48920        -0.174312      0.261887     -0.356185
Zr     10.48920     10.48920      2.52580         0.110395      0.362950     -0.357729
Zr     10.48920     10.48920     18.45260        -0.085613     -0.237522      0.211614
Zr      2.52580     10.48920     10.48920        -0.243712      0.138008      0.232109
Zr     18.45260     10.48920     10.48920         0.212603     -0.114191      0.004485
Pd      9.38410     14.25440      9.37887        -0.025096      0.007076     -0.042183
Pd      8.60780     13.67221     12.95178         0.003991     -0.016644      0.018020
Pd     12.02376     14.40221      8.72273         0.004432     -0.000234      0.002737
Pd     12.85046     12.87171     10.61619        -0.048482      0.020886      0.031196
Pd     12.10447      7.17515     12.66682         0.018231     -0.010139     -0.025962
Pd     11.23064     14.82485     11.51642        -0.028652      0.016609     -0.025671
Pd     10.12654     12.47239     11.12005        -0.041409      0.046147     -0.016143
Pd     13.46763     12.10852      7.96947         0.009789      0.017630      0.001264
Pd     11.47687     11.53653      6.10410         0.001306      0.001062      0.002162
Pd      7.90475      8.53476      7.52399         0.009314     -0.053800      0.009829
Pd      8.72560     11.75064      6.85418        -0.003968      0.009059      0.001510
Pd     10.35565      9.45951      8.13667        -0.021512     -0.010319     -0.004363
Pd      8.51582     14.46066      6.85200        -0.009647     -0.002655     -0.020870
Pd     12.38444      8.98171      6.51171         0.011038      0.013677      0.008755
Pd      9.71940      9.61113      5.55927        -0.004683      0.003438      0.000621
Pd      6.83626      9.43858     12.17687        -0.017391      0.005451     -0.005231
Pd     12.18970      6.70979      7.92289        -0.010043      0.007452     -0.003540
Pd      5.92217     10.46459      9.72138        -0.007458      0.002072     -0.002703
Pd      7.58792      7.20375     13.40716        -0.017416      0.017312     -0.000181
Ir     11.79067      9.76398     13.03860        -0.021811     -0.015773      0.028888
Ir     13.56798      8.98815     11.43201        -0.011084      0.022250      0.002053
Ir      9.46934      8.85111     13.96162        -0.034079     -0.013073      0.021805
Ir     10.57110     11.05048     14.80904        -0.023225     -0.013524      0.034679
Ir      7.29262     12.01086     11.34122        -0.001319      0.004712      0.006481
Ir     14.69251     10.82386     10.07088        -0.012117      0.028118      0.013647
Ir     12.15419     10.56003      9.72487         0.007919     -0.012291     -0.037211
Ir      8.75547     11.00355     13.00356        -0.000971      0.038139     -0.010486
Ir     10.10874      9.87125     11.20380        -0.006969      0.000458     -0.021369
Ir     13.80819     11.36459     12.38994        -0.026037      0.018359      0.050085
Ir     11.73147     12.37743     13.07403        -0.077381     -0.011625     -0.008911
Ir      8.50700     11.07787      9.34680         0.001569      0.000213     -0.018334
Ir     11.56882      8.00269     10.11228        -0.012791      0.006879     -0.007931
Ir      7.21967     13.01518      8.67068         0.027245      0.001851     -0.010291
Ir      9.50810      6.99322      9.15698         0.012269      0.027868      0.076618
Ir      8.03857      8.75598     10.07746         0.031521     -0.011663      0.005668
Ir     10.72364     12.11038      8.50988        -0.013461      0.012231     -0.001454
Ir      9.50818      7.50378     11.70960         0.000323      0.024224      0.001135
Ir     13.61810      8.79387      8.78147         0.012000      0.004496      0.043122
