152
# total energy = -1060.15293805 eVH     10.35389      5.87395      7.64558        -0.317854      0.100699      1.089552
H     10.62451     15.10445      7.64558         0.078762     -0.069216      0.897134
H     10.62451      5.87395     13.33282        -0.269796      0.072480     -0.783505
H     10.35389     15.10445     13.33282         0.094249     -0.303308     -0.823877
H      7.64558     10.35389      5.87395         0.895134     -0.202526      0.206450
H      7.64558     10.62451     15.10445         0.316855     -0.028458     -0.063355
H     13.33282     10.62451      5.87395        -0.885877      0.219970      0.222010
H     13.33282     10.35389     15.10445        -0.282736     -0.029457     -0.060911
H      5.87395      7.64558     10.35389         0.093022      0.422262     -0.011862
H     15.10445      7.64558     10.62451        -0.041869      0.436062     -0.031939
H      5.87395     13.33282     10.62451        -0.015736     -0.967600      0.079162
H     15.10445     13.33282     10.35389        -0.081799     -0.327469      0.001009
H      5.87395     10.35389      7.64558         0.318359      0.061975      0.370804
H     15.10445     10.62451      7.64558        -0.119721     -0.158909      0.667794
H      5.87395     10.62451     13.33282        -0.063805      0.452070     -0.600928
H     15.10445     10.35389     13.33282         0.229565     -0.638860     -0.876408
H     10.35389      7.64558      5.87395        -0.021933      0.500371      0.345117
H     10.62451      7.64558     15.10445         0.334048      0.792087     -0.006224
H     10.62451     13.33282      5.87395         0.153144     -0.568253      0.201510
H     10.35389     13.33282     15.10445         0.031648     -0.289857     -0.166734
H      7.64558      5.87395     10.35389         0.370507      0.113662      0.063543
H      7.64558     15.10445     10.62451         0.388898     -0.128226      0.177790
H     13.33282      5.87395     10.62451        -0.306491      0.137414     -0.014533
H     13.33282     15.10445     10.35389        -0.659222     -0.105181      0.135199
H     12.45634     12.45634     19.01126         0.259263      0.272316     -0.226375
H     19.01126     19.01126     19.01126        -0.247681     -0.267407     -0.244534
H     19.01126     12.45634     12.45634        -0.248889      0.271597      0.236699
H     12.45634     19.01126     12.45634         0.290166     -0.235246      0.235078
C     10.35284      5.61067      6.59456         0.402852     -0.419831     -1.360107
C     10.62556     15.36773      6.59456        -0.169153      0.607546     -0.659565
C     10.62556      5.61067     14.38384         0.365819     -0.276403      0.777243
C     10.35284     15.36773     14.38384        -0.205683      0.218472      1.028670
C      6.59456     10.35284      5.61067        -1.396804      0.032401     -0.229513
C      6.59456     10.62556     15.36773        -0.665325      0.064758      0.357413
C     14.38384     10.62556      5.61067         1.307678     -0.186401     -0.630629
C     14.38384     10.35284     15.36773         0.319238     -0.131862      0.351934
C      5.61067      6.59456     10.35284        -0.273467     -0.674488     -0.030971
C     15.36773      6.59456     10.62556         0.408829     -0.856711      0.029234
C      5.61067     14.38384     10.62556        -0.146585      1.191959     -0.220114
C     15.36773     14.38384     10.35284         0.505605      0.706142     -0.036999
C      5.61067     10.35284      6.59456        -0.372230     -0.102799     -0.777119
C     15.36773     10.62556      6.59456         0.404062      0.106151     -0.681473
C      5.61067     10.62556     14.38384        -0.408512     -0.163949      1.219696
C     15.36773     10.35284     14.38384         0.233462      0.224342      1.417799
C     10.35284      6.59456      5.61067        -0.068656     -0.747107     -0.549656
C     10.62556      6.59456     15.36773        -0.142463     -0.984009      0.377033
C     10.62556     14.38384      5.61067        -0.493487      0.380546     -0.738787
C     10.35284     14.38384     15.36773        -0.173507      0.741325      0.493410
C      6.59456      5.61067     10.35284        -0.564111     -0.337991      0.002715
C      6.59456     15.36773     10.62556        -0.367170      0.447773      0.064760
C     14.38384      5.61067     10.62556         0.434386     -0.309174      0.008040
C     14.38384     15.36773     10.35284         1.131761      0.487403     -0.077908
C     10.40319      3.19606      7.29314        -0.007407      0.783548     -0.337172
C     10.35913      4.25547      6.23373         0.024068     -0.380126      0.290489
C      0.08601      7.29314      7.29314        -0.018323     -0.381022     -0.505860
C      0.13007      6.23373      6.23373        -0.046934      0.881771      0.093225
C      0.08601      3.19606      3.19606        -0.006928      0.695905      0.260334
C      0.13007      4.25547      4.25547         0.045887     -0.265998     -0.547398
C     10.40319      7.29314      3.19606        -0.063939     -1.116935      0.619704
C     10.35913      6.23373      4.25547        -0.046114      0.347650     -0.203925
C      7.29314     10.40319      3.19606        -1.094865     -0.055197      0.200176
C      6.23373     10.35913      4.25547         0.380412      0.101362     -0.522554
C      7.29314      0.08601      7.29314        -0.477227      0.029100     -0.442671
C      6.23373      0.13007      6.23373         0.178872      0.122168      0.120444
C      3.19606      0.08601      3.19606         0.703337      0.023441      0.170729
C      4.25547      0.13007      4.25547        -0.172235     -0.049940     -0.367228
C      3.19606     10.40319      7.29314         0.371888     -0.026619     -0.951459
C      4.25547     10.35913      6.23373        -0.128955     -0.054872      0.113893
C      3.19606      7.29314     10.40319         0.614353     -0.398613      0.002306
C      4.25547      6.23373     10.35913        -0.114969      0.178393      0.011509
C      7.29314      7.29314      0.08601        -0.428436     -0.294270     -0.015581
C      6.23373      6.23373      0.13007         0.149361      0.154076     -0.061262
C      3.19606      3.19606      0.08601         0.293597      0.492445     -0.025104
C      4.25547      4.25547      0.13007        -0.402058     -0.239619     -0.031401
C      7.29314      3.19606     10.40319        -0.283273      0.592364     -0.009839
C      6.23373      4.25547     10.35913         0.016994     -0.092451      0.015037
O     10.43466      3.58206      8.50569        -0.026170      0.073481      0.303079
O     10.54374     17.39634      8.50569         0.064672     -0.123719      0.592629
O     10.54374      3.58206     12.47271         0.029413      0.101462     -0.398016
O     10.43466     17.39634     12.47271         0.094474     -0.061640     -0.432940
O      8.50569     10.43466      3.58206         0.736460     -0.072652      0.015706
O      8.50569     10.54374     17.39634         0.533664      0.062029     -0.102488
O     12.47271     10.54374      3.58206        -0.656898      0.111735      0.210904
O     12.47271     10.43466     17.39634        -0.279900      0.004047      0.036560
O      3.58206      8.50569     10.43466         0.034324      0.444185     -0.063263
O     17.39634      8.50569     10.54374        -0.054380      0.447022      0.056270
O      3.58206     12.47271     10.54374         0.104620     -0.588457      0.003882
O     17.39634     12.47271     10.43466        -0.182137     -0.740358     -0.049634
O      3.58206     10.43466      8.50569         0.209129     -0.060872      0.806962
O     17.39634     10.54374      8.50569        -0.074505      0.071685      0.492557
O      3.58206     10.54374     12.47271        -0.003893     -0.004939     -0.261483
O     17.39634     10.43466     12.47271         0.035433     -0.010253     -0.232007
O     10.43466      8.50569      3.58206        -0.106637      0.533203     -0.100727
O     10.54374      8.50569     17.39634         0.059896      0.511180     -0.084217
O     10.54374     12.47271      3.58206         0.103203     -0.638859      0.129209
O     10.43466     12.47271     17.39634        -0.065286     -0.693325     -0.277288
O      8.50569      3.58206     10.43466         0.397059      0.023184     -0.046235
O      8.50569     17.39634     10.54374         0.640477     -0.154130      0.046331
O     12.47271      3.58206     10.54374        -0.515957      0.121064      0.028622
O     12.47271     17.39634     10.43466        -0.623269     -0.124461      0.040473
O     11.90042     11.90042     19.56718        -0.278150     -0.304051      0.222850
O     19.56718     19.56718     19.56718         0.309830      0.322462      0.298207
O     19.56718     11.90042     11.90042         0.284045     -0.325393     -0.235461
O     11.90042     19.56718     11.90042        -0.314117      0.229541     -0.201149
O      9.45224      1.03696      9.45224        -0.074565      0.087719     -0.079056
O      1.03696      9.45224      9.45224         0.101720     -0.109142     -0.060849
O      1.03696      1.03696      1.03696         0.079551      0.053882      0.098494
O      9.45224      9.45224      1.03696        -0.058161     -0.125537      0.136588
Zr     10.48920      2.52580     10.48920         0.043183     -0.094247      0.121141
Zr     10.48920     18.45260     10.48920        -0.181917      0.247431     -0.361288
Zr     10.48920     10.48920      2.52580         0.112198      0.358210     -0.346876
Zr     10.48920     10.48920     18.45260        -0.080307     -0.260625      0.233598
Zr      2.52580     10.48920     10.48920        -0.240798      0.130647      0.243867
Zr     18.45260     10.48920     10.48920         0.196862     -0.137242     -0.021694
Pd      9.35969     14.29787      9.31484         0.004414      0.027692     -0.028411
Pd      8.59061     13.64405     13.04027         0.010868      0.019193      0.026555
Pd     12.02274     14.40417      8.74371         0.010591     -0.010615      0.014917
Pd     12.75981     12.87923     10.68149        -0.049175     -0.001135      0.047679
Pd     12.11891      7.19282     12.67634         0.005262     -0.013389     -0.001493
Pd     11.15868     14.90125     11.45404        -0.021079      0.023938     -0.018091
Pd     10.03861     12.55046     11.08788        -0.032682      0.048502     -0.040873
Pd     13.47873     12.15312      7.98304         0.010751      0.006129      0.009472
Pd     11.47945     11.54215      6.10843         0.003580      0.011376      0.000134
Pd      7.94182      8.38125      7.52366         0.002250     -0.028769      0.001485
Pd      8.71979     11.75677      6.84433        -0.005512      0.004562      0.005754
Pd     10.32315      9.45246      8.15004        -0.020680     -0.007437      0.013581
Pd      8.49747     14.46380      6.79234        -0.009384      0.003585     -0.015334
Pd     12.39666      9.01644      6.56523        -0.003241      0.027283      0.038589
Pd      9.71693      9.60950      5.57304         0.005522      0.006274      0.002913
Pd      6.81696      9.45382     12.14027         0.012999      0.004200      0.017536
Pd     12.17740      6.74394      7.95307         0.012447      0.007472      0.010971
Pd      5.91373     10.48436      9.69310        -0.009707     -0.004692      0.006879
Pd      7.55100      7.24130     13.40940        -0.010153     -0.014732     -0.014537
Ir     11.73610      9.77521     13.06686        -0.049942      0.004170      0.012236
Ir     13.55079      9.05610     11.47472        -0.004997      0.001915      0.007737
Ir      9.42517      8.86419     14.01109        -0.014141      0.053651     -0.011565
Ir     10.50815     11.01732     14.89094        -0.024011     -0.061558      0.026999
Ir      7.27192     12.01509     11.34053        -0.040889      0.018338     -0.021668
Ir     14.64851     10.91162     10.15147        -0.014429      0.025230      0.029269
Ir     12.16026     10.57433      9.68031         0.031036     -0.038073     -0.014906
Ir      8.74690     11.00462     12.98958         0.091364     -0.047787      0.053429
Ir     10.10471      9.91705     11.17314         0.004076     -0.002457      0.004278
Ir     13.73737     11.41757     12.48916        -0.049583      0.006717      0.052202
Ir     11.59024     12.35420     13.09064        -0.071344     -0.039153      0.017332
Ir      8.49747     11.09651      9.33502        -0.007747      0.023382     -0.019081
Ir     11.59151      8.02775     10.14453         0.011431     -0.000166     -0.003424
Ir      7.21535     13.03058      8.65523         0.017194      0.007748      0.010354
Ir      9.54723      6.96220      9.23889        -0.002608      0.015131      0.006845
Ir      8.05208      8.76487     10.05925         0.014798     -0.033086     -0.022088
Ir     10.71995     12.12248      8.50328        -0.010824      0.015268     -0.023199
Ir      9.51280      7.57163     11.75615         0.005326      0.020869     -0.010229
Ir     13.66472      8.80078      8.84020         0.001203      0.018510      0.035332
