152
# total energy = -1073.41995471 eVH     10.35389      5.87395      7.64558         0.104707     -0.075222      0.454402
H     10.62451     15.10445      7.64558        -0.299316      0.760882      1.473152
H     10.62451      5.87395     13.33282         0.262725     -0.295764     -1.184432
H     10.35389     15.10445     13.33282        -0.548321      0.584709     -1.502795
H      7.64558     10.35389      5.87395         0.369072     -0.201998     -0.014288
H      7.64558     10.62451     15.10445         0.582136     -0.311864      0.128638
H     13.33282     10.62451      5.87395        -0.437520      0.032572      0.108313
H     13.33282     10.35389     15.10445        -0.520925      0.244453      0.039870
H      5.87395      7.64558     10.35389        -0.330063      0.877537      0.286035
H     15.10445      7.64558     10.62451         0.089222      0.783299     -0.008832
H      5.87395     13.33282     10.62451         0.037316     -0.480637      0.002828
H     15.10445     13.33282     10.35389         0.080283     -0.899601      0.119379
H      5.87395     10.35389      7.64558        -0.026459     -0.036603      0.594354
H     15.10445     10.62451      7.64558         0.001083      0.030637      0.437224
H      5.87395     10.62451     13.33282        -0.105698      0.186762     -0.808524
H     15.10445     10.35389     13.33282         0.185130     -0.156256     -0.258695
H     10.35389      7.64558      5.87395        -0.535320      0.154323     -0.248393
H     10.62451      7.64558     15.10445         0.246546      0.507765      0.192471
H     10.62451     13.33282      5.87395        -0.163194     -0.927473     -0.186144
H     10.35389     13.33282     15.10445        -0.251484     -0.979375      0.235688
H      7.64558      5.87395     10.35389         0.675828     -0.536707      0.325392
H      7.64558     15.10445     10.62451         0.884346     -0.012741     -0.122530
H     13.33282      5.87395     10.62451        -0.800745     -0.182167      0.143715
H     13.33282     15.10445     10.35389        -0.519192      0.107218      0.049707
H     12.45634     12.45634     19.01126         0.261534      0.249028     -0.243387
H     19.01126     19.01126     19.01126        -0.257261     -0.256373     -0.238402
H     19.01126     12.45634     12.45634        -0.256490      0.256621      0.238131
H     12.45634     19.01126     12.45634         0.250807     -0.258901      0.240719
C     10.35284      5.61067      6.59456        -0.036638     -0.234347     -1.025561
C     10.62556     15.36773      6.59456         0.135377     -0.124412     -1.821015
C     10.62556      5.61067     14.38384         0.018478     -0.460027      1.415693
C     10.35284     15.36773     14.38384         0.119218      0.273225      1.587070
C      6.59456     10.35284      5.61067        -0.543309     -0.011204     -0.350347
C      6.59456     10.62556     15.36773        -0.925751      0.064811      0.480550
C     14.38384     10.62556      5.61067         0.575705      0.014967     -0.193432
C     14.38384     10.35284     15.36773         0.824870     -0.068238      0.307749
C      5.61067      6.59456     10.35284        -0.473211     -0.746864      0.197800
C     15.36773      6.59456     10.62556         0.443996     -1.192279     -0.032850
C      5.61067     14.38384     10.62556        -0.414241      0.830012      0.021033
C     15.36773     14.38384     10.35284         0.432271      0.749797      0.147843
C      5.61067     10.35284      6.59456        -0.550488      0.062383     -1.585428
C     15.36773     10.62556      6.59456         0.627378     -0.025129     -1.730040
C      5.61067     10.62556     14.38384        -0.663484      0.062117      1.686172
C     15.36773     10.35284     14.38384         0.573096     -0.103911      1.409082
C     10.35284      6.59456      5.61067         0.166282     -1.640080     -0.557852
C     10.62556      6.59456     15.36773         0.148402     -1.788416      0.916264
C     10.62556     14.38384      5.61067         0.082333      1.484157     -0.531315
C     10.35284     14.38384     15.36773        -0.099648      1.831238      0.800431
C      6.59456      5.61067     10.35284        -0.811048     -1.041478      0.248261
C      6.59456     15.36773     10.62556        -1.520178      0.300060      0.037364
C     14.38384      5.61067     10.62556         2.113203     -0.918812     -0.025441
C     14.38384     15.36773     10.35284         0.405271      0.793477      0.008766
C     10.40319      3.19606      7.29314         0.035164      0.592941     -0.263907
C     10.35913      4.25547      6.23373         0.086245     -0.469488      0.323721
C      0.08601      7.29314      7.29314         0.016995     -0.605514     -0.262192
C      0.13007      6.23373      6.23373        -0.067235      0.779215      0.593574
C      0.08601      3.19606      3.19606        -0.030061      0.406373      0.295324
C      0.13007      4.25547      4.25547        -0.023030     -0.507524     -0.475580
C     10.40319      7.29314      3.19606         0.071508     -0.298287      0.216356
C     10.35913      6.23373      4.25547         0.134795      0.516899     -0.402902
C      7.29314     10.40319      3.19606        -0.392123      0.024925      0.537313
C      6.23373     10.35913      4.25547         0.282358      0.027661     -0.458925
C      7.29314      0.08601      7.29314        -0.435376      0.044938     -0.475181
C      6.23373      0.13007      6.23373         0.167028      0.125742      0.557166
C      3.19606      0.08601      3.19606         0.243503      0.010434      0.570105
C      4.25547      0.13007      4.25547        -0.385201      0.120229     -0.295327
C      3.19606     10.40319      7.29314         0.487163     -0.002795     -0.636245
C      4.25547     10.35913      6.23373        -0.368929      0.056399      0.575533
C      3.19606      7.29314     10.40319         0.278253     -0.520264     -0.009910
C      4.25547      6.23373     10.35913        -0.692751      0.297606     -0.134152
C      7.29314      7.29314      0.08601        -0.305120     -0.192808     -0.006079
C      6.23373      6.23373      0.13007         0.071915      0.478725     -0.048566
C      3.19606      3.19606      0.08601         0.492308      0.116047     -0.019882
C      4.25547      4.25547      0.13007        -0.075432     -0.352282     -0.019904
C      7.29314      3.19606     10.40319        -0.433948      0.501152      0.003980
C      6.23373      4.25547     10.35913         0.460897     -0.722084     -0.113399
O     10.43466      3.58206      8.50569        -0.006979      0.123197      0.308283
O     10.54374     17.39634      8.50569         0.024265     -0.173315      0.296079
O     10.54374      3.58206     12.47271         0.069269      0.175379     -0.336677
O     10.43466     17.39634     12.47271        -0.073393     -0.225556     -0.362254
O      8.50569     10.43466      3.58206         0.511267      0.000042      0.146677
O      8.50569     10.54374     17.39634         0.456420      0.057133     -0.122067
O     12.47271     10.54374      3.58206        -0.405612      0.033938      0.112326
O     12.47271     10.43466     17.39634        -0.504724     -0.033344     -0.103158
O      3.58206      8.50569     10.43466         0.155456      0.524949     -0.056301
O     17.39634      8.50569     10.54374        -0.148176      0.445085      0.026279
O      3.58206     12.47271     10.54374         0.086853     -0.363133      0.045099
O     17.39634     12.47271     10.43466        -0.198282     -0.575280     -0.030404
O      3.58206     10.43466      8.50569         0.232564     -0.078464      0.604896
O     17.39634     10.54374      8.50569        -0.178214      0.019582      0.504613
O      3.58206     10.54374     12.47271         0.306928     -0.042228     -0.538145
O     17.39634     10.43466     12.47271        -0.189990     -0.019049     -0.546279
O     10.43466      8.50569      3.58206        -0.005082      0.432296      0.199141
O     10.54374      8.50569     17.39634         0.044119      0.566595     -0.275410
O     10.54374     12.47271      3.58206         0.004306     -0.518081      0.271639
O     10.43466     12.47271     17.39634        -0.072297     -0.581557     -0.258214
O      8.50569      3.58206     10.43466         0.549392      0.201654     -0.030865
O      8.50569     17.39634     10.54374         0.457256     -0.191883      0.036269
O     12.47271      3.58206     10.54374        -0.534775      0.192928      0.000110
O     12.47271     17.39634     10.43466        -0.485371     -0.172835     -0.029447
O     11.90042     11.90042     19.56718        -0.303151     -0.289688      0.249945
O     19.56718     19.56718     19.56718         0.298899      0.301799      0.240419
O     19.56718     11.90042     11.90042         0.305628     -0.299779     -0.275086
O     11.90042     19.56718     11.90042        -0.293476      0.307440     -0.276742
O      9.45224      1.03696      9.45224        -0.047319      0.053720     -0.105377
O      1.03696      9.45224      9.45224         0.049045     -0.037962     -0.105699
O      1.03696      1.03696      1.03696         0.061040      0.065096      0.069177
O      9.45224      9.45224      1.03696        -0.058721     -0.045125      0.070079
Zr     10.48920      2.52580     10.48920        -0.092903     -0.114616      0.029992
Zr     10.48920     18.45260     10.48920         0.052143      0.086707      0.029839
Zr     10.48920     10.48920      2.52580         0.002178     -0.035129     -0.202065
Zr     10.48920     10.48920     18.45260         0.040509     -0.011017      0.234424
Zr      2.52580     10.48920     10.48920        -0.128267      0.018691     -0.002098
Zr     18.45260     10.48920     10.48920         0.168638      0.009694      0.053987
Pd     13.36123      8.54285      8.00356         0.305136     -0.182043     -0.229598
Pd      8.73319     14.00336     11.93459         0.237724      0.048521      0.115103
Pd     12.19832     11.09556     10.64381        -1.872183     -0.185473      0.037758
Pd     14.43079     10.77491     11.75507         1.476730      0.031214      2.197189
Pd     11.07767      9.07858      6.65963         1.301052     -0.091778     -0.828943
Pd      7.60278      7.48371      9.18647       -10.719610     -3.368121      3.000527
Ir      9.89504     11.53229     11.99198        -0.861870      0.239720     -1.198270
Ir     13.25637      8.61191     10.69436         0.498683      0.972241     -0.388268
Ir     12.12957     11.09675      7.98516         0.171870     -1.369937      0.032586
Ir      8.79024     13.79886      9.23300         0.201798      0.735315      0.074258
Ir     11.03077      9.12956     12.03375         1.337030      0.824724     -0.718261
Ir      8.72857      9.44222      8.03221       -13.873111     25.353569     -9.561879
Ir     13.26926     12.97991      9.20064         0.838364      0.503935     -0.118953
Ir     11.10985     13.34135      7.98479        -0.219718      1.474128     -0.432145
Ir     14.34578     10.64089      9.36926         0.521333     -0.340071     -2.083997
Ir      9.91574      7.04019     10.74218        -0.190211     -1.769521      1.539627
Ir      7.66925     11.85988      7.99787        -0.531285      0.859683     -0.564876
Ir      9.52817      7.86647      8.48051        14.913023    -30.137304     -4.659188
Ir     11.20591     13.40666     13.15588        -1.342902      2.995719      1.173890
Ir     12.15714      6.81728     12.04218        -0.406976     -0.232847      0.939183
Ir      9.86900     11.46037      9.27716         0.234058     -0.212694      1.148788
Ir     13.26507      8.66434     13.35712         0.297045      0.134643      0.479557
Ir     11.01032      9.02319      9.38464         9.889185      6.607333      4.844729
Ir     11.03891     13.53493     10.56471        -0.301595      0.329163     -0.259543
Ir     13.22418     13.13089     11.96289         1.686671      0.434522     -0.644956
Ir     12.09316     11.20525     13.33818         2.559749     -0.634656     -1.120499
Ir      9.88315     11.34035      6.69532        -0.478899      0.533789     -0.455168
Ir     12.02393      6.68251      9.45524        -0.065028     -0.281561     -0.883206
Ir      7.64472      7.56948     12.15660        -9.862001     -2.062295     -5.458468
Ir      7.61844     11.91410     10.60576         0.428445      0.872181      0.669318
Ir     11.06358      9.45092     14.59417         1.397900     -4.228894      1.814430
Ir      7.65864     12.00542     13.27075        -0.397548     -0.315301      0.173062
Ir      6.54093      9.93605      9.45045        -1.602460      0.658913     -2.139019
Ir      8.75110      9.51405     13.32770        -4.641618     13.480636      1.753573
Ir      6.58071      9.83507     11.77277        -2.962040      1.016350      2.324686
Ir      9.44080      7.59784     13.20653        12.397042    -14.544207      7.046083
Ir      9.88700     11.45224     14.59105        -2.001231      3.057662      0.546278
Ir      8.70745      9.49500     10.69600         2.262453      1.281448      0.246312
