152
# total energy = -1003.87819444 eVH     10.35389      5.87395      7.64558        -0.266297      0.225399      0.660703
H     10.62451     15.10445      7.64558        -0.340100     -0.130541      0.805687
H     10.62451      5.87395     13.33282         0.385263      0.048227     -0.858196
H     10.35389     15.10445     13.33282         0.039292     -0.173078     -0.502469
H      7.64558     10.35389      5.87395         0.531290      0.071548      0.001031
H      7.64558     10.62451     15.10445         0.731319      0.578671     -0.070424
H     13.33282     10.62451      5.87395        -0.516118     -0.149829      0.324184
H     13.33282     10.35389     15.10445        -0.655537     -0.100619     -0.024708
H      5.87395      7.64558     10.35389         0.087385      1.568794      0.151092
H     15.10445      7.64558     10.62451        -0.065341      0.595664      0.006988
H      5.87395     13.33282     10.62451         0.209007     -0.778453      0.100786
H     15.10445     13.33282     10.35389         0.027445     -1.204640      0.068885
H      5.87395     10.35389      7.64558         0.029026      0.089748      0.646072
H     15.10445     10.62451      7.64558        -0.148732      0.682376      1.300858
H      5.87395     10.62451     13.33282        -0.074000      0.464179     -1.433226
H     15.10445     10.35389     13.33282         0.600543      0.001290     -1.072193
H     10.35389      7.64558      5.87395         0.198987      1.514937      0.079492
H     10.62451      7.64558     15.10445         0.569434      1.002980     -0.064404
H     10.62451     13.33282      5.87395        -0.579634     -0.727170      0.202608
H     10.35389     13.33282     15.10445        -0.057361     -0.441267     -0.212338
H      7.64558      5.87395     10.35389         1.107717     -0.263244     -0.336028
H      7.64558     15.10445     10.62451         0.736854     -0.190411      0.031546
H     13.33282      5.87395     10.62451        -0.784568      0.093628      0.495109
H     13.33282     15.10445     10.35389        -0.313035     -0.085492     -0.042454
H     12.45634     12.45634     19.01126         0.267871      0.241949     -0.241790
H     19.01126     19.01126     19.01126        -0.264799     -0.267203     -0.222542
H     19.01126     12.45634     12.45634        -0.269760      0.255154      0.235791
H     12.45634     19.01126     12.45634         0.257998     -0.276229      0.230462
C     10.35284      5.61067      6.59456        -0.140391     -0.875501     -0.752980
C     10.62556     15.36773      6.59456         0.213756      0.333863     -0.348585
C     10.62556      5.61067     14.38384        -0.223970     -0.685576      0.558597
C     10.35284     15.36773     14.38384        -0.001466      0.247371      0.536707
C      6.59456     10.35284      5.61067        -0.827456      0.074472     -0.491797
C      6.59456     10.62556     15.36773        -0.825917      0.214900      0.836653
C     14.38384     10.62556      5.61067         0.903550      0.037115     -0.878592
C     14.38384     10.35284     15.36773         1.080554     -0.017581      0.741158
C      5.61067      6.59456     10.35284        -0.700024     -0.692772     -0.422697
C     15.36773      6.59456     10.62556         0.730591      0.116042     -0.159072
C      5.61067     14.38384     10.62556        -0.313930      0.905051     -0.061206
C     15.36773     14.38384     10.35284         0.441348      1.342467     -0.279237
C      5.61067     10.35284      6.59456        -0.342530     -0.010643     -0.789778
C     15.36773     10.62556      6.59456         0.300259     -0.322965     -0.916428
C      5.61067     10.62556     14.38384        -0.411138     -0.087171      1.218449
C     15.36773     10.35284     14.38384         0.154291      0.014072      1.395522
C     10.35284      6.59456      5.61067        -0.065773     -1.189043     -0.356114
C     10.62556      6.59456     15.36773        -0.093931     -0.858950      0.660591
C     10.62556     14.38384      5.61067         0.041032      0.993591     -0.624155
C     10.35284     14.38384     15.36773        -0.021781      0.499163      0.306704
C      6.59456      5.61067     10.35284        -0.729097     -1.186664      0.201333
C      6.59456     15.36773     10.62556        -0.803507      0.227292      0.051444
C     14.38384      5.61067     10.62556         0.019891     -0.532022     -0.299268
C     14.38384     15.36773     10.35284         0.067285      0.572476     -0.034222
C     10.40319      3.19606      7.29314         0.001256      0.407246     -0.935282
C     10.35913      4.25547      6.23373        -0.007550     -0.490489      0.105367
C      0.08601      7.29314      7.29314        -0.045062     -0.901318     -0.266484
C      0.13007      6.23373      6.23373         0.017283      0.375301      0.560683
C      0.08601      3.19606      3.19606         0.019665      1.061200      0.258402
C      0.13007      4.25547      4.25547         0.006457     -0.483962     -0.355238
C     10.40319      7.29314      3.19606        -0.013548     -0.586897      0.201615
C     10.35913      6.23373      4.25547        -0.013539      0.166600     -0.658848
C      7.29314     10.40319      3.19606        -0.358854      0.013377      0.209287
C      6.23373     10.35913      4.25547         0.214552      0.009686     -0.250195
C      7.29314      0.08601      7.29314        -1.020225     -0.079501     -0.376312
C      6.23373      0.13007      6.23373         0.627136     -0.198068      0.328580
C      3.19606      0.08601      3.19606         1.069176     -0.034522      0.281069
C      4.25547      0.13007      4.25547        -0.590841     -0.132181     -0.288606
C      3.19606     10.40319      7.29314         0.474543      0.021133     -0.242924
C      4.25547     10.35913      6.23373        -0.249035      0.010124      0.139682
C      3.19606      7.29314     10.40319         0.262495     -0.469940      0.052609
C      4.25547      6.23373     10.35913        -0.903133     -0.066603      0.117770
C      7.29314      7.29314      0.08601        -0.455842     -0.399299     -0.021221
C      6.23373      6.23373      0.13007         0.547301      0.257010      0.075368
C      3.19606      3.19606      0.08601         0.694301      0.459965     -0.013533
C      4.25547      4.25547      0.13007        -0.120891     -0.889272     -0.048373
C      7.29314      3.19606     10.40319        -0.348501      0.414318      0.045981
C      6.23373      4.25547     10.35913         0.459723     -0.647006      0.151046
O     10.43466      3.58206      8.50569         0.074575      0.257233      0.800619
O     10.54374     17.39634      8.50569         0.052454     -0.065355      0.338146
O     10.54374      3.58206     12.47271         0.008358     -0.014469     -0.292588
O     10.43466     17.39634     12.47271        -0.032393     -0.100755     -0.367189
O      8.50569     10.43466      3.58206         0.540160     -0.037344      0.162819
O      8.50569     10.54374     17.39634         0.843662     -0.079803     -0.213222
O     12.47271     10.54374      3.58206        -0.843686      0.154170      0.170520
O     12.47271     10.43466     17.39634        -0.570199      0.021486     -0.202370
O      3.58206      8.50569     10.43466         0.189773      0.594806     -0.050066
O     17.39634      8.50569     10.54374        -0.148012      0.587736      0.031763
O      3.58206     12.47271     10.54374         0.113493     -0.542640      0.039755
O     17.39634     12.47271     10.43466        -0.175411     -0.534075     -0.053176
O      3.58206     10.43466      8.50569         0.115834     -0.033270      0.365890
O     17.39634     10.54374      8.50569         0.016582      0.104006      0.343228
O      3.58206     10.54374     12.47271         0.015304      0.041652     -0.286635
O     17.39634     10.43466     12.47271        -0.133203     -0.028402     -0.378735
O     10.43466      8.50569      3.58206        -0.041295      0.649112      0.192627
O     10.54374      8.50569     17.39634        -0.072101      0.777296     -0.169604
O     10.54374     12.47271      3.58206         0.156581     -0.879761      0.205799
O     10.43466     12.47271     17.39634        -0.021783     -0.354571     -0.007367
O      8.50569      3.58206     10.43466         0.546771      0.142921     -0.051676
O      8.50569     17.39634     10.54374         0.580155     -0.180721      0.012674
O     12.47271      3.58206     10.54374        -0.724074      0.119566      0.023834
O     12.47271     17.39634     10.43466        -0.508974     -0.137270     -0.034814
O     11.90042     11.90042     19.56718        -0.313142     -0.258929      0.255367
O     19.56718     19.56718     19.56718         0.300934      0.325649      0.225278
O     19.56718     11.90042     11.90042         0.342352     -0.277203     -0.251224
O     11.90042     19.56718     11.90042        -0.288892      0.351980     -0.229814
O      9.45224      1.03696      9.45224        -0.025210      0.105092     -0.116321
O      1.03696      9.45224      9.45224         0.063635     -0.010130     -0.112255
O      1.03696      1.03696      1.03696         0.052061      0.096242      0.101421
O      9.45224      9.45224      1.03696        -0.031807     -0.015191      0.102454
Zr     10.48920      2.52580     10.48920        -0.118387     -0.276784      0.184438
Zr     10.48920     18.45260     10.48920         0.027170      0.049499      0.063165
Zr     10.48920     10.48920      2.52580        -0.251166     -0.213400     -0.384660
Zr     10.48920     10.48920     18.45260         0.118520      0.006805      0.327259
Zr      2.52580     10.48920     10.48920        -0.124725     -0.096134     -0.038278
Zr     18.45260     10.48920     10.48920         0.086378     -0.068195      0.094021
Pd     12.52599      8.25442      9.87217        -0.001477     -0.008126     -0.002952
Pd      7.08897      9.55461     10.50224        -0.062881      0.006283      0.029765
Pd      6.86334     11.71014     11.96020         0.013139      0.101972     -0.042547
Pd     12.23643     13.63549      7.47307        -0.051213     -0.039561     -0.113608
Pd     11.90380      7.87721      7.25712         0.150758      0.092113     -0.040967
Pd      8.64993      7.47167      7.03885         0.059566      0.016214      0.040233
Pd     11.66428     11.62553      5.76215         0.049847     -0.038222      0.031960
Pd     14.29879      8.88731      7.81481         0.058243      0.036751     -0.059855
Pd      9.87926     11.92757      7.82060        -0.027249     -0.064036      0.035183
Pd      7.12591      7.06398     12.01952         0.005197     -0.004452     -0.008518
Pd      6.54955      7.85795      8.52923         0.011330     -0.104260     -0.019548
Pd      7.23068      9.19474     13.46889         0.036203     -0.034495     -0.026285
Pd     11.34669      5.95095      9.23532        -0.035305      0.003995      0.092789
Pd     10.07044      9.67845      6.30013         0.028454     -0.004289      0.040635
Pd      9.03742     13.93332      9.35032        -0.000297     -0.027662     -0.050722
Pd     10.96529      6.89541     11.62259        -0.042499      0.017782      0.007756
Pd     10.24119      9.20766      9.02701         0.048020      0.014850      0.003163
Pd      9.21570     11.38949     10.40625        -0.094734      0.057684     -0.010640
Pd      8.94252      7.14465      9.78213        -0.008580      0.034751     -0.172922
Pd      8.85071      7.14181     13.98798         0.100246     -0.018060     -0.125897
Pd      9.28468      8.92040     11.74312        -0.041815      0.002956      0.000100
Pd     12.31293     10.71398      8.22840        -0.022529     -0.054865     -0.072289
Pd      6.93378     12.08202      9.25182        -0.008269      0.054756      0.060900
Pd      8.04808     10.02406      8.03464        -0.044426     -0.118578      0.096088
Pd     13.92430      6.37741      8.51489         0.017006      0.042526      0.048633
Pd     13.47380      7.70315     12.27780        -0.098757      0.062728     -0.050851
Pd      9.18640     11.19891     13.12454         0.075060      0.046816      0.075514
Pd     14.21762     12.51472      8.74244        -0.164682     -0.070040      0.034850
Pd     13.37990     10.35764     12.79294        -0.198678      0.108786     -0.075686
Pd     14.25054     10.20713     10.19782        -0.093064     -0.065406      0.002045
Pd     11.52223     10.40760     11.08804         0.058775     -0.035139     -0.050606
Pd     11.43606     12.92626      9.85700         0.071683      0.029449     -0.009622
Pd     13.60603     12.52016     11.37762        -0.005578      0.084419      0.057250
Pd     11.24285     12.73850     12.43490         0.110209     -0.068583     -0.050785
Pd     11.48406     11.24270     14.59187        -0.027984      0.042169      0.027693
Pd     11.29623      8.83835     13.39662         0.003456      0.078578      0.021405
Pd      9.45129      9.55010     15.17366         0.092104      0.051185      0.099224
Pd      8.79859     13.60056     11.99285         0.057772      0.005906     -0.045962
