152
# total energy = -1110.39380916 eVH     10.35389      5.87395      7.64558        -0.388642     -0.129719      1.152169
H     10.62451     15.10445      7.64558         0.326511      0.078157      0.918314
H     10.62451      5.87395     13.33282        -0.317496     -0.671127     -1.332996
H     10.35389     15.10445     13.33282        -0.586652      0.426638     -0.333772
H      7.64558     10.35389      5.87395         0.560725     -0.522269     -0.102482
H      7.64558     10.62451     15.10445         0.384770     -0.232666      0.042503
H     13.33282     10.62451      5.87395        -0.582336      0.648985     -0.049109
H     13.33282     10.35389     15.10445        -0.525684      0.385483      0.153160
H      5.87395      7.64558     10.35389         0.149112      0.555708      0.027756
H     15.10445      7.64558     10.62451         0.428059      1.023217      0.286605
H      5.87395     13.33282     10.62451        -0.220187     -0.502993      0.361908
H     15.10445     13.33282     10.35389         0.028420     -0.299608     -0.381255
H      5.87395     10.35389      7.64558        -0.104608     -0.414876      1.491360
H     15.10445     10.62451      7.64558         0.220823      0.516296      1.328210
H      5.87395     10.62451     13.33282        -0.215212     -0.367896     -1.202304
H     15.10445     10.35389     13.33282         0.615716      1.010610     -1.536186
H     10.35389      7.64558      5.87395        -0.587428      0.531611     -0.172669
H     10.62451      7.64558     15.10445        -0.133080      0.447817      0.155769
H     10.62451     13.33282      5.87395         0.869093     -1.327425     -0.312565
H     10.35389     13.33282     15.10445         0.223691     -0.562820     -0.106087
H      7.64558      5.87395     10.35389         0.719476      0.163283     -0.173802
H      7.64558     15.10445     10.62451         1.979206      0.748858      0.222467
H     13.33282      5.87395     10.62451        -2.650964     -0.897829     -0.518453
H     13.33282     15.10445     10.35389        -0.877575     -0.056099     -0.253877
H     12.45634     12.45634     19.01126         0.271933      0.257867     -0.227444
H     19.01126     19.01126     19.01126        -0.266800     -0.254664     -0.238813
H     19.01126     12.45634     12.45634        -0.284169      0.281763      0.184759
H     12.45634     19.01126     12.45634         0.256567     -0.250660      0.235708
C     10.35284      5.61067      6.59456         0.076325     -0.482338     -1.201829
C     10.62556     15.36773      6.59456         0.194127      0.755456     -0.814090
C     10.62556      5.61067     14.38384         0.179195     -0.296187      1.781277
C     10.35284     15.36773     14.38384         0.085683      0.384976      1.791364
C      6.59456     10.35284      5.61067        -1.139836     -0.110437     -0.897878
C      6.59456     10.62556     15.36773        -0.699473     -0.094146      0.794919
C     14.38384     10.62556      5.61067         0.837034     -0.112005     -0.990546
C     14.38384     10.35284     15.36773         1.178295      0.168667      1.099053
C      5.61067      6.59456     10.35284        -0.668505     -0.900488     -0.188390
C     15.36773      6.59456     10.62556         2.012379     -0.325600     -0.187310
C      5.61067     14.38384     10.62556        -1.568552     -0.015634     -0.142728
C     15.36773     14.38384     10.35284         0.485223      0.090006      0.000211
C      5.61067     10.35284      6.59456        -0.272663      0.215359     -1.353064
C     15.36773     10.62556      6.59456         0.298717     -0.267484     -0.979718
C      5.61067     10.62556     14.38384        -0.256680      0.446503      1.452788
C     15.36773     10.35284     14.38384        -0.001316     -0.494956      1.946831
C     10.35284      6.59456      5.61067        -0.158726     -0.845930     -0.698751
C     10.62556      6.59456     15.36773        -0.118737     -0.711482      1.042123
C     10.62556     14.38384      5.61067        -0.499821      1.986379     -0.751211
C     10.35284     14.38384     15.36773        -0.258867      1.356514      0.502219
C      6.59456      5.61067     10.35284        -0.988061     -0.410977      0.094363
C      6.59456     15.36773     10.62556        -1.254110      0.368272     -0.333035
C     14.38384      5.61067     10.62556         1.269329     -1.304199      0.219867
C     14.38384     15.36773     10.35284         0.456755      0.312307      0.085349
C     10.40319      3.19606      7.29314         0.001106      0.304580     -0.111792
C     10.35913      4.25547      6.23373         0.142068     -0.578846      0.016582
C      0.08601      7.29314      7.29314        -0.053505     -0.277777     -0.420132
C      0.13007      6.23373      6.23373        -0.124097      0.666632      0.016922
C      0.08601      3.19606      3.19606        -0.105714      1.664486      0.165136
C      0.13007      4.25547      4.25547        -0.098311     -0.392202     -1.203716
C     10.40319      7.29314      3.19606         0.015793     -0.451994      0.122332
C     10.35913      6.23373      4.25547         0.264199      0.086579     -0.536567
C      7.29314     10.40319      3.19606        -1.698510      0.011175      0.325079
C      6.23373     10.35913      4.25547         0.672398      0.082211     -0.625821
C      7.29314      0.08601      7.29314        -0.410119     -0.015803     -0.318123
C      6.23373      0.13007      6.23373         0.729393     -0.058699      0.243600
C      3.19606      0.08601      3.19606         0.663230     -0.018904      0.178889
C      4.25547      0.13007      4.25547        -0.354229     -0.086185     -0.573719
C      3.19606     10.40319      7.29314         0.348597      0.023874     -0.319610
C      4.25547     10.35913      6.23373        -0.743247      0.079732      0.362009
C      3.19606      7.29314     10.40319         0.284851     -0.201320     -0.006420
C      4.25547      6.23373     10.35913         0.043316      0.632498      0.091814
C      7.29314      7.29314      0.08601        -0.715291     -0.609632     -0.028331
C      6.23373      6.23373      0.13007         0.903319      1.122890     -0.065548
C      3.19606      3.19606      0.08601         0.824243      0.513978      0.000487
C      4.25547      4.25547      0.13007        -0.323297     -1.769134     -0.130224
C      7.29314      3.19606     10.40319        -0.324483      0.271199     -0.004575
C      6.23373      4.25547     10.35913         0.509657     -0.019375      0.231407
O     10.43466      3.58206      8.50569        -0.048657      0.187340      0.260135
O     10.54374     17.39634      8.50569         0.042195     -0.237233      0.487339
O     10.54374      3.58206     12.47271         0.084109     -0.076497     -0.021482
O     10.43466     17.39634     12.47271        -0.023140     -0.141494     -0.268701
O      8.50569     10.43466      3.58206         0.993509      0.189896      0.375895
O      8.50569     10.54374     17.39634         0.579867      0.084145     -0.229308
O     12.47271     10.54374      3.58206        -0.413679     -0.041401      0.181637
O     12.47271     10.43466     17.39634        -0.505728     -0.067377     -0.192809
O      3.58206      8.50569     10.43466         0.184221      0.422522     -0.028762
O     17.39634      8.50569     10.54374        -0.230462      0.712149      0.046420
O      3.58206     12.47271     10.54374         0.162136     -0.682086      0.026454
O     17.39634     12.47271     10.43466        -0.186857     -0.474842     -0.010210
O      3.58206     10.43466      8.50569         0.232036     -0.061874      0.406372
O     17.39634     10.54374      8.50569        -0.172066      0.037479      0.413343
O      3.58206     10.54374     12.47271         0.147683      0.021778     -0.303242
O     17.39634     10.43466     12.47271         0.082233     -0.051703     -0.069630
O     10.43466      8.50569      3.58206         0.005488      0.273757      0.183676
O     10.54374      8.50569     17.39634         0.069440      0.424880     -0.173606
O     10.54374     12.47271      3.58206        -0.222274     -0.974675      0.328430
O     10.43466     12.47271     17.39634        -0.081873     -0.450991     -0.245243
O      8.50569      3.58206     10.43466         0.488812      0.197286     -0.009772
O      8.50569     17.39634     10.54374         0.664648     -0.203846      0.022427
O     12.47271      3.58206     10.54374        -0.747247      0.281074      0.038586
O     12.47271     17.39634     10.43466        -0.432311     -0.206233     -0.043674
O     11.90042     11.90042     19.56718        -0.347236     -0.307166      0.261304
O     19.56718     19.56718     19.56718         0.324057      0.311497      0.284484
O     19.56718     11.90042     11.90042         0.274399     -0.273408     -0.137968
O     11.90042     19.56718     11.90042        -0.305336      0.282867     -0.232938
O      9.45224      1.03696      9.45224        -0.061558      0.073333     -0.044729
O      1.03696      9.45224      9.45224         0.035712     -0.075960     -0.069734
O      1.03696      1.03696      1.03696         0.064082      0.150853      0.095110
O      9.45224      9.45224      1.03696        -0.144135     -0.099372      0.095398
Zr     10.48920      2.52580     10.48920         0.164394     -0.174034     -0.168839
Zr     10.48920     18.45260     10.48920        -0.101429      0.188493     -0.051420
Zr     10.48920     10.48920      2.52580         0.344528     -0.310238     -0.206001
Zr     10.48920     10.48920     18.45260         0.015370     -0.088539      0.199199
Zr      2.52580     10.48920     10.48920        -0.072202      0.180147     -0.052667
Zr     18.45260     10.48920     10.48920         0.147487     -0.132875     -0.253518
Ir     12.03886     12.48473     10.45287         0.003210     -0.003320      0.009387
Ir     11.22195      7.41328     10.23784         0.017326     -0.002334     -0.022486
Ir      8.85959      7.34857     11.51836         0.001977     -0.015123     -0.012904
Ir      7.45893     11.64722      7.65566        -0.011117     -0.002596      0.002242
Ir     11.59810     12.07052      7.11011        -0.001749     -0.005067     -0.007739
Ir     13.78840      8.99255      7.51687         0.002814     -0.002347     -0.005858
Ir     12.47156     13.95248      8.40398        -0.005948     -0.006699     -0.002600
Ir      9.74179     11.25348      5.53665         0.007815     -0.002637     -0.003772
Ir      9.07416     13.43837      7.07731        -0.002290     -0.002189     -0.003388
Ir      9.26557      9.67424      7.49634        -0.002746      0.009988     -0.013949
Ir     13.28637      7.03336     11.96181        -0.002776     -0.000010      0.004037
Ir     13.64461      7.04215      9.10526         0.006414      0.009277     -0.003374
Ir     11.04587      7.59068     12.79392        -0.000267     -0.007932     -0.013004
Ir     13.59778     11.56491      8.75003        -0.000570      0.001378     -0.002366
Ir     11.50266      9.61826      6.21537        -0.005355     -0.005803     -0.005733
Ir      7.16403      9.14323      8.91718        -0.006343     -0.005748     -0.010644
Ir     14.06171     11.43971     11.64396        -0.009030      0.004470     -0.003758
Ir     11.66394      9.82265      8.85462        -0.006519     -0.011936     -0.013317
Ir      9.44717      9.49847     10.22149         0.008669      0.007143     -0.002855
Ir     13.88320      9.41373     10.16238         0.005099     -0.003422     -0.005103
Ir     13.84310      9.16202     12.87482         0.005523     -0.005457     -0.015122
Ir     11.70693      9.75757     11.53310         0.004025      0.004672     -0.001906
Ir      9.92023     11.72745      8.95955         0.006575     -0.018912      0.001606
Ir      9.11557      7.43448      8.76291         0.011999     -0.004167     -0.022472
Ir     11.64674      7.51701      7.71445         0.029985     -0.018858     -0.011011
Ir      9.25728      9.46521     13.00023         0.003144     -0.004594     -0.006264
Ir      7.50463     13.89851      8.99334         0.000954     -0.003600      0.002881
Ir     10.86222     14.09823     11.95159        -0.004760     -0.008339      0.001285
Ir     10.11173     14.14353      9.51307         0.000405      0.001203      0.000539
Ir      9.79224     11.67713     11.72084         0.006699     -0.017726      0.003820
Ir      7.59333     11.55976     10.20334        -0.000311     -0.000827     -0.004785
Ir      8.34414     13.73128     11.57988        -0.004060     -0.000152     -0.001385
Ir      7.52721     11.53739     12.81842        -0.003526     -0.005718      0.002643
Ir      9.78173     11.58633     14.34056         0.002615     -0.008255      0.002522
Ir     13.46471     13.88391     12.18470        -0.001643     -0.002591     -0.001192
Ir     11.99077     12.04193     13.07532         0.003465     -0.008013     -0.014830
Ir     11.58971      9.77591     14.17174         0.004251     -0.012737     -0.011053
Ir      7.16087      9.34342     11.47404        -0.006521     -0.006851     -0.000415
