152
# total energy = -1004.12964805 eVH     10.35389      5.87395      7.64558        -0.286843      0.272896      0.563428
H     10.62451     15.10445      7.64558        -0.260751     -0.142216      0.715055
H     10.62451      5.87395     13.33282         0.457642      0.051796     -0.941841
H     10.35389     15.10445     13.33282         0.075217     -0.195853     -0.521066
H      7.64558     10.35389      5.87395         0.450830      0.073092      0.097183
H      7.64558     10.62451     15.10445         0.820802      0.631918     -0.013163
H     13.33282     10.62451      5.87395        -0.446268     -0.094532      0.301152
H     13.33282     10.35389     15.10445        -0.666858     -0.145696     -0.050190
H      5.87395      7.64558     10.35389         0.097018      1.798527      0.237226
H     15.10445      7.64558     10.62451        -0.094514      0.488082      0.117787
H      5.87395     13.33282     10.62451         0.211401     -0.754963      0.068829
H     15.10445     13.33282     10.35389         0.249993     -1.441665     -0.351029
H      5.87395     10.35389      7.64558         0.073063      0.076556      0.622724
H     15.10445     10.62451      7.64558        -0.240256      0.759696      1.313850
H      5.87395     10.62451     13.33282        -0.055654      0.469467     -1.322646
H     15.10445     10.35389     13.33282         0.141044     -0.117668     -0.772913
H     10.35389      7.64558      5.87395         0.235024      1.338168      0.209916
H     10.62451      7.64558     15.10445         0.581066      0.867943     -0.082731
H     10.62451     13.33282      5.87395        -0.579048     -0.790964      0.189828
H     10.35389     13.33282     15.10445        -0.119012     -0.528706     -0.290488
H      7.64558      5.87395     10.35389         1.122727     -0.335196     -0.158227
H      7.64558     15.10445     10.62451         0.689537     -0.215596     -0.011811
H     13.33282      5.87395     10.62451        -0.626951      0.113722      0.598407
H     13.33282     15.10445     10.35389        -0.358568     -0.043571     -0.116137
H     12.45634     12.45634     19.01126         0.272060      0.244291     -0.233418
H     19.01126     19.01126     19.01126        -0.266980     -0.274856     -0.212901
H     19.01126     12.45634     12.45634        -0.272012      0.256033      0.232562
H     12.45634     19.01126     12.45634         0.258359     -0.280054      0.226950
C     10.35284      5.61067      6.59456        -0.117958     -0.813759     -0.681024
C     10.62556     15.36773      6.59456         0.102862      0.361654     -0.273824
C     10.62556      5.61067     14.38384        -0.080544     -0.637267      0.610305
C     10.35284     15.36773     14.38384        -0.017690      0.219505      0.525416
C      6.59456     10.35284      5.61067        -0.737141      0.095180     -0.524441
C      6.59456     10.62556     15.36773        -0.999084      0.211378      0.758977
C     14.38384     10.62556      5.61067         0.910481      0.020100     -0.989077
C     14.38384     10.35284     15.36773         0.941991     -0.074967      0.496896
C      5.61067      6.59456     10.35284        -0.817438     -0.956138     -0.457348
C     15.36773      6.59456     10.62556         0.745242      0.011460     -0.197670
C      5.61067     14.38384     10.62556        -0.197248      0.910118     -0.027259
C     15.36773     14.38384     10.35284         0.308387      1.497865     -0.061967
C      5.61067     10.35284      6.59456        -0.320846      0.001118     -0.775587
C     15.36773     10.62556      6.59456         0.405486     -0.415443     -0.846747
C      5.61067     10.62556     14.38384        -0.388888     -0.004692      1.053655
C     15.36773     10.35284     14.38384         0.275627     -0.030543      0.915306
C     10.35284      6.59456      5.61067        -0.039078     -1.042456     -0.294395
C     10.62556      6.59456     15.36773         0.010316     -0.753301      0.594136
C     10.62556     14.38384      5.61067         0.096686      0.948043     -0.450978
C     10.35284     14.38384     15.36773        -0.023763      0.747135      0.353597
C      6.59456      5.61067     10.35284        -0.738716     -1.167571      0.178851
C      6.59456     15.36773     10.62556        -0.742756      0.116500      0.070887
C     14.38384      5.61067     10.62556        -0.050325     -0.479440     -0.411213
C     14.38384     15.36773     10.35284         0.070990      0.622797     -0.073329
C     10.40319      3.19606      7.29314         0.007884      0.600417     -0.813299
C     10.35913      4.25547      6.23373         0.006657     -0.463908      0.127638
C      0.08601      7.29314      7.29314        -0.030601     -1.067803     -0.273063
C      0.13007      6.23373      6.23373        -0.043687      0.401404      0.471000
C      0.08601      3.19606      3.19606         0.038079      1.172524      0.221492
C      0.13007      4.25547      4.25547         0.005260     -0.430465     -0.421107
C     10.40319      7.29314      3.19606        -0.013576     -0.646264      0.199035
C     10.35913      6.23373      4.25547        -0.036065      0.121102     -0.665544
C      7.29314     10.40319      3.19606        -0.453542      0.015067      0.233442
C      6.23373     10.35913      4.25547         0.201154      0.052094     -0.109209
C      7.29314      0.08601      7.29314        -1.250474     -0.078654     -0.407098
C      6.23373      0.13007      6.23373         0.681516     -0.197243      0.375544
C      3.19606      0.08601      3.19606         1.214507     -0.013192      0.266254
C      4.25547      0.13007      4.25547        -0.604733     -0.133683     -0.206120
C      3.19606     10.40319      7.29314         0.545065      0.031429     -0.258675
C      4.25547     10.35913      6.23373        -0.206048      0.062729      0.181558
C      3.19606      7.29314     10.40319         0.285236     -0.540765      0.050754
C      4.25547      6.23373     10.35913        -0.970208     -0.006625      0.157548
C      7.29314      7.29314      0.08601        -0.470314     -0.435438     -0.019409
C      6.23373      6.23373      0.13007         0.424046      0.302655      0.064243
C      3.19606      3.19606      0.08601         0.629032      0.461730     -0.020181
C      4.25547      4.25547      0.13007        -0.146891     -0.792916     -0.106608
C      7.29314      3.19606     10.40319        -0.370786      0.453387      0.052872
C      6.23373      4.25547     10.35913         0.609779     -0.681719      0.196214
O     10.43466      3.58206      8.50569         0.057169      0.223684      0.704567
O     10.54374     17.39634      8.50569         0.052202     -0.023146      0.311056
O     10.54374      3.58206     12.47271         0.003673     -0.046101     -0.240901
O     10.43466     17.39634     12.47271        -0.033422     -0.088024     -0.358210
O      8.50569     10.43466      3.58206         0.590197     -0.050121      0.151762
O      8.50569     10.54374     17.39634         0.877718     -0.080197     -0.136367
O     12.47271     10.54374      3.58206        -0.884235      0.148522      0.132472
O     12.47271     10.43466     17.39634        -0.601990      0.041440     -0.183592
O      3.58206      8.50569     10.43466         0.177994      0.644081     -0.038626
O     17.39634      8.50569     10.54374        -0.139868      0.625515      0.020214
O      3.58206     12.47271     10.54374         0.110958     -0.562221      0.045059
O     17.39634     12.47271     10.43466        -0.177873     -0.564581     -0.056643
O      3.58206     10.43466      8.50569         0.093242     -0.040890      0.384097
O     17.39634     10.54374      8.50569         0.064877      0.103144      0.339746
O      3.58206     10.54374     12.47271        -0.027828      0.025575     -0.229987
O     17.39634     10.43466     12.47271        -0.105232     -0.028984     -0.397184
O     10.43466      8.50569      3.58206        -0.049232      0.666609      0.188837
O     10.54374      8.50569     17.39634        -0.086352      0.818338     -0.143034
O     10.54374     12.47271      3.58206         0.126467     -0.944816      0.178433
O     10.43466     12.47271     17.39634         0.013826     -0.450774     -0.051996
O      8.50569      3.58206     10.43466         0.559904      0.147054     -0.051009
O      8.50569     17.39634     10.54374         0.590318     -0.162887      0.016362
O     12.47271      3.58206     10.54374        -0.734022      0.121078      0.019667
O     12.47271     17.39634     10.43466        -0.507461     -0.129817     -0.028856
O     11.90042     11.90042     19.56718        -0.323391     -0.266435      0.243644
O     19.56718     19.56718     19.56718         0.295849      0.324860      0.206376
O     19.56718     11.90042     11.90042         0.343664     -0.286304     -0.246210
O     11.90042     19.56718     11.90042        -0.286802      0.347967     -0.218662
O      9.45224      1.03696      9.45224        -0.041098      0.104899     -0.122167
O      1.03696      9.45224      9.45224         0.068240     -0.031697     -0.107621
O      1.03696      1.03696      1.03696         0.059483      0.088489      0.107745
O      9.45224      9.45224      1.03696        -0.035357     -0.026924      0.100111
Zr     10.48920      2.52580     10.48920        -0.089901     -0.233369      0.184108
Zr     10.48920     18.45260     10.48920         0.025453      0.058455      0.067746
Zr     10.48920     10.48920      2.52580        -0.292901     -0.205633     -0.412800
Zr     10.48920     10.48920     18.45260         0.188674      0.008039      0.341177
Zr      2.52580     10.48920     10.48920        -0.127707     -0.049256     -0.059556
Zr     18.45260     10.48920     10.48920         0.103107     -0.042296      0.129565
Pd     12.67779      8.20822      9.69667        -0.061598      0.020193     -0.022257
Pd      6.80456      9.62643     10.50874        -0.091414      0.027433     -0.051882
Pd      6.95658     11.80215     11.95333        -0.053713      0.003983     -0.055846
Pd     12.24899     13.50338      7.30454         0.025284     -0.009297     -0.034169
Pd     12.12920      7.93157      7.05927        -0.005757     -0.036728     -0.042658
Pd      8.51454      7.42486      6.95999         0.022408     -0.082372      0.042663
Pd     11.55617     11.48615      5.67272         0.021725     -0.038076     -0.049702
Pd     14.55897      8.79967      7.81877        -0.113350      0.048782     -0.009616
Pd      9.94076     11.77121      7.83921        -0.093913     -0.015078     -0.010277
Pd      7.09858      7.18521     11.98549        -0.038533     -0.013004     -0.009554
Pd      6.42260      7.76323      8.51260         0.082569      0.028843     -0.099408
Pd      7.32804      9.25872     13.51508         0.000744     -0.062902     -0.090755
Pd     11.32776      6.04292      9.22003        -0.022115      0.037035      0.053961
Pd      9.90619      9.60413      6.23533         0.041349      0.005995      0.062429
Pd      9.12805     13.91180      9.25196         0.025155     -0.097970      0.051186
Pd     10.82567      7.12874     11.54481         0.062848      0.054053     -0.020475
Pd     10.32407      9.03614      8.87156         0.028179      0.037794      0.061375
Pd      9.26133     11.47589     10.40093        -0.006454      0.019163      0.070305
Pd      8.82696      7.15022      9.66959         0.079364     -0.016983     -0.062640
Pd      9.01559      7.25340     13.74834         0.070039      0.005304     -0.075509
Pd      9.11923      9.10782     11.51005         0.072124     -0.036029      0.019031
Pd     12.37941     10.56184      8.07056        -0.007298      0.009770      0.061064
Pd      6.96173     12.06509      9.23515         0.065678      0.069157      0.019571
Pd      8.03973      9.89856      8.17050         0.012634     -0.059283      0.066628
Pd     13.96882      6.26993      8.46140         0.027785      0.037275      0.000612
Pd     13.23014      8.16371     12.22733         0.104090      0.012185     -0.018394
Pd      9.18278     11.29927     13.23140         0.054149     -0.016585      0.010114
Pd     14.11065     12.43001      8.79353        -0.028465      0.013307     -0.031993
Pd     13.17260     10.75664     12.88877         0.005710      0.070318      0.055700
Pd     14.25479     10.24463     10.33337        -0.009310     -0.051008      0.073024
Pd     11.60102     10.31826     10.83369        -0.065415      0.033933      0.061670
Pd     11.56085     12.89224      9.75510        -0.072653      0.064540      0.048639
Pd     13.71441     12.83723     11.47220        -0.046746     -0.030959      0.056451
Pd     11.27344     12.55965     12.32876        -0.031957      0.126726      0.010915
Pd     11.37990     11.47247     14.79852         0.005908     -0.048472     -0.046505
Pd     11.05924      9.19932     13.32030         0.037099      0.006146     -0.069772
Pd      9.47877      9.60393     15.34659        -0.025966      0.019565      0.024296
Pd      8.95553     13.70176     11.94692        -0.038476      0.026177     -0.044326
