152
# total energy = -1060.67944837 eVH     10.35389      5.87395      7.64558        -0.336674      0.141697      1.096982
H     10.62451     15.10445      7.64558         0.111653     -0.096325      0.807159
H     10.62451      5.87395     13.33282        -0.297837      0.062104     -0.661545
H     10.35389     15.10445     13.33282         0.070489     -0.296346     -0.575559
H      7.64558     10.35389      5.87395         0.755571     -0.112426      0.209531
H      7.64558     10.62451     15.10445         0.209515      0.033271     -0.056010
H     13.33282     10.62451      5.87395        -0.651282     -0.082456      0.172313
H     13.33282     10.35389     15.10445        -0.308953     -0.075898     -0.065723
H      5.87395      7.64558     10.35389         0.111856      0.393052     -0.011040
H     15.10445      7.64558     10.62451        -0.106631      0.834159      0.371602
H      5.87395     13.33282     10.62451         0.060093     -0.643710      0.033495
H     15.10445     13.33282     10.35389        -0.245894     -0.441423      0.072687
H      5.87395     10.35389      7.64558         0.270227      0.087595      0.343812
H     15.10445     10.62451      7.64558        -0.173000     -0.091184      0.390155
H      5.87395     10.62451     13.33282         0.014609      0.293692     -0.727242
H     15.10445     10.35389     13.33282         0.075908     -0.300280     -0.740915
H     10.35389      7.64558      5.87395        -0.065882      0.468823      0.300151
H     10.62451      7.64558     15.10445         0.275265      0.632213     -0.112375
H     10.62451     13.33282      5.87395         0.187592     -0.670279      0.140298
H     10.35389     13.33282     15.10445         0.123076     -0.470572     -0.115606
H      7.64558      5.87395     10.35389         0.442380      0.148259      0.024639
H      7.64558     15.10445     10.62451         0.386649     -0.141861      0.249738
H     13.33282      5.87395     10.62451        -0.305035      0.103412      0.024462
H     13.33282     15.10445     10.35389        -0.580266     -0.235721      0.204363
H     12.45634     12.45634     19.01126         0.249164      0.266832     -0.232586
H     19.01126     19.01126     19.01126        -0.251984     -0.267207     -0.232214
H     19.01126     12.45634     12.45634        -0.233469      0.264297      0.248300
H     12.45634     19.01126     12.45634         0.297720     -0.214750      0.237909
C     10.35284      5.61067      6.59456         0.448870     -0.366435     -1.171429
C     10.62556     15.36773      6.59456        -0.229991      0.787963     -0.724413
C     10.62556      5.61067     14.38384         0.335467     -0.266122      0.670110
C     10.35284     15.36773     14.38384        -0.166940      0.315613      0.683276
C      6.59456     10.35284      5.61067        -0.846769     -0.069074     -0.179272
C      6.59456     10.62556     15.36773        -0.603264      0.069893      0.353819
C     14.38384     10.62556      5.61067         1.177349      0.010121     -0.553840
C     14.38384     10.35284     15.36773         0.297296     -0.089678      0.351262
C      5.61067      6.59456     10.35284        -0.332394     -0.576775      0.003029
C     15.36773      6.59456     10.62556         0.266709     -0.928104     -0.296156
C      5.61067     14.38384     10.62556        -0.201239      0.730294     -0.283618
C     15.36773     14.38384     10.35284         0.401449      0.885445     -0.092011
C      5.61067     10.35284      6.59456        -0.246314     -0.128680     -0.442397
C     15.36773     10.62556      6.59456         0.205165      0.069293     -0.358202
C      5.61067     10.62556     14.38384        -0.376596     -0.118610      1.268032
C     15.36773     10.35284     14.38384         0.230960      0.028194      1.051480
C     10.35284      6.59456      5.61067        -0.033290     -0.443887     -0.431582
C     10.62556      6.59456     15.36773         0.001310     -0.773151      0.356215
C     10.62556     14.38384      5.61067        -0.391344      0.149027     -0.765515
C     10.35284     14.38384     15.36773        -0.226345      0.701408      0.348375
C      6.59456      5.61067     10.35284        -0.518051     -0.319007      0.083867
C      6.59456     15.36773     10.62556        -0.288186      0.487878      0.055794
C     14.38384      5.61067     10.62556         0.283015     -0.423388      0.102709
C     14.38384     15.36773     10.35284         0.949769      0.313153     -0.065852
C     10.40319      3.19606      7.29314         0.005130      0.734108     -0.363330
C     10.35913      4.25547      6.23373         0.017792     -0.444052      0.329123
C      0.08601      7.29314      7.29314        -0.010895     -0.651408     -0.557768
C      0.13007      6.23373      6.23373        -0.091647      0.830938      0.095660
C      0.08601      3.19606      3.19606        -0.028212      0.368645      0.323397
C      0.13007      4.25547      4.25547         0.066004     -0.187991     -0.632167
C     10.40319      7.29314      3.19606        -0.031908     -1.180685      0.941052
C     10.35913      6.23373      4.25547        -0.007057      0.379725     -0.205777
C      7.29314     10.40319      3.19606        -0.890936     -0.049665      0.335744
C      6.23373     10.35913      4.25547         0.282995      0.080738     -0.476231
C      7.29314      0.08601      7.29314        -0.875760      0.012972     -0.403775
C      6.23373      0.13007      6.23373         0.133622      0.035375      0.097499
C      3.19606      0.08601      3.19606         0.406511     -0.005367      0.269815
C      4.25547      0.13007      4.25547        -0.220146     -0.068157     -0.179101
C      3.19606     10.40319      7.29314         0.477779     -0.040676     -1.079994
C      4.25547     10.35913      6.23373        -0.192889     -0.023310      0.139779
C      3.19606      7.29314     10.40319         0.754981     -0.454664      0.016923
C      4.25547      6.23373     10.35913        -0.105727      0.160511     -0.002641
C      7.29314      7.29314      0.08601        -0.381614     -0.298950     -0.018718
C      6.23373      6.23373      0.13007         0.321998      0.120071     -0.167750
C      3.19606      3.19606      0.08601         0.323945      0.625535     -0.012196
C      4.25547      4.25547      0.13007        -0.417562     -0.278133      0.014851
C      7.29314      3.19606     10.40319        -0.239176      0.645682      0.015152
C      6.23373      4.25547     10.35913         0.037155     -0.210657      0.007000
O     10.43466      3.58206      8.50569        -0.030865      0.078776      0.297811
O     10.54374     17.39634      8.50569         0.073448     -0.034846      0.447328
O     10.54374      3.58206     12.47271         0.047547      0.187672     -0.526235
O     10.43466     17.39634     12.47271         0.048912      0.009996     -0.507923
O      8.50569     10.43466      3.58206         0.651976     -0.079774      0.086579
O      8.50569     10.54374     17.39634         0.843814      0.069065     -0.132654
O     12.47271     10.54374      3.58206        -0.386112      0.073888      0.089783
O     12.47271     10.43466     17.39634        -0.328124     -0.010336      0.072804
O      3.58206      8.50569     10.43466         0.001138      0.429112     -0.082195
O     17.39634      8.50569     10.54374        -0.129527      0.431763      0.031336
O      3.58206     12.47271     10.54374         0.141127     -0.636548     -0.006574
O     17.39634     12.47271     10.43466        -0.267268     -0.742135     -0.001840
O      3.58206     10.43466      8.50569         0.155948     -0.043336      0.848916
O     17.39634     10.54374      8.50569         0.015513      0.038323      0.315635
O      3.58206     10.54374     12.47271         0.049453      0.010652     -0.388449
O     17.39634     10.43466     12.47271        -0.039513      0.009526     -0.355787
O     10.43466      8.50569      3.58206        -0.057638      0.548760     -0.163529
O     10.54374      8.50569     17.39634         0.035146      0.699351     -0.113731
O     10.54374     12.47271      3.58206         0.067800     -0.393452      0.093399
O     10.43466     12.47271     17.39634        -0.057900     -0.759161     -0.261828
O      8.50569      3.58206     10.43466         0.334478      0.027337     -0.064763
O      8.50569     17.39634     10.54374         0.535896     -0.136794      0.039624
O     12.47271      3.58206     10.54374        -0.456352      0.119903      0.017727
O     12.47271     17.39634     10.43466        -0.624925     -0.092403      0.051705
O     11.90042     11.90042     19.56718        -0.255999     -0.281110      0.220281
O     19.56718     19.56718     19.56718         0.292621      0.301875      0.266324
O     19.56718     11.90042     11.90042         0.248930     -0.300684     -0.292048
O     11.90042     19.56718     11.90042        -0.301396      0.175704     -0.236701
O      9.45224      1.03696      9.45224        -0.124110      0.129878     -0.069237
O      1.03696      9.45224      9.45224         0.146929     -0.152087     -0.097670
O      1.03696      1.03696      1.03696         0.136470      0.152453     -0.002595
O      9.45224      9.45224      1.03696        -0.155549     -0.189865      0.055744
Zr     10.48920      2.52580     10.48920         0.034012     -0.217132      0.216171
Zr     10.48920     18.45260     10.48920        -0.218664      0.272212     -0.329497
Zr     10.48920     10.48920      2.52580         0.166882      0.512050     -0.158964
Zr     10.48920     10.48920     18.45260         0.012707     -0.156651      0.383899
Zr      2.52580     10.48920     10.48920        -0.434921      0.099207      0.357670
Zr     18.45260     10.48920     10.48920         0.248177     -0.161647      0.039425
Pd      9.22101     14.44360      9.11065        -0.053245      0.014551      0.162179
Pd      8.37061     13.49426     13.44905         0.044781     -0.210110     -0.012183
Pd     11.92699     14.48036      8.85322        -0.026537     -0.146962      0.206771
Pd     12.33775     12.77002     10.82030        -0.035793      0.127391      0.191987
Pd     12.00823      7.12076     12.42390         0.009051      0.057399     -0.162644
Pd     10.99044     15.19531     11.30311         0.044303     -0.024054     -0.100018
Pd      9.66031     12.93903     11.17923        -0.029805      0.006352      0.190512
Pd     13.58851     12.47317      8.27285         0.307590      0.122558     -0.144807
Pd     11.72387     11.73746      6.51413        -0.338270     -0.215524      0.155256
Pd      7.68255      8.22937      7.46301        -0.042911      0.132980     -0.189390
Pd      8.75733     11.85805      6.87153         0.160598      0.074326     -0.062125
Pd      9.89810      9.72920      8.13034         0.016158     -0.225565      0.069035
Pd      8.47839     14.51220      6.52352         0.063078      0.038348      0.044929
Pd     12.25178      9.10094      7.07574         0.029798     -0.057342     -0.134587
Pd     10.15340      9.81908      5.47803        -0.180833      0.018533      0.102518
Pd      6.84737      9.25981     12.24347         0.148418      0.080723      0.032927
Pd     12.26023      6.53466      7.88954        -0.110307     -0.002755      0.010153
Pd      5.73438     10.51772      9.89507        -0.033868     -0.028911      0.043196
Pd      7.57487      6.84048     13.13568         0.039594     -0.004543     -0.057269
Ir     11.41839      9.62940     13.04228        -0.166114      0.056401     -0.113283
Ir     13.30182      9.18920     11.40491        -0.159223      0.024059     -0.070716
Ir      9.15632      8.68174     13.94713         0.068417     -0.200491      0.259922
Ir     10.29926     10.59905     15.15660         0.100186      0.220308     -0.076617
Ir      7.11271     11.88659     11.66445         0.110534     -0.049379     -0.000402
Ir     14.56942     11.13302     10.41521         0.007024     -0.117516      0.319149
Ir     12.37809     10.45449      9.36792         0.138605      0.068181     -0.091719
Ir      8.89826     10.93589     12.95248        -0.043438      0.185029     -0.073359
Ir     10.05722     10.13085     10.80786         0.027028      0.101034     -0.030982
Ir     13.36571     11.36025     12.66930         0.044289     -0.031502     -0.038781
Ir     11.11565     12.14569     13.25347        -0.007277      0.077149     -0.025501
Ir      8.16067     11.45027      9.41282         0.055580      0.122180     -0.004160
Ir     11.44292      8.05520      9.89883        -0.085165     -0.087064     -0.199468
Ir      7.04898     13.29197      8.34574         0.009484     -0.149160     -0.074971
Ir      9.32896      7.08936      9.13816         0.032659     -0.001843     -0.015927
Ir      7.90327      8.97137      9.93023         0.046376      0.174853      0.021908
Ir     10.61801     12.18171      8.80373        -0.226463     -0.025713      0.103570
Ir      9.45670      7.79843     11.61155         0.038835     -0.084829     -0.142021
Ir     13.82517      8.29940      9.04735         0.020918      0.236448     -0.080032
