152
# total energy = -1060.43512319 eVH     10.35389      5.87395      7.64558        -0.235497      0.134203      1.009621
H     10.62451     15.10445      7.64558         0.256496     -0.080497      0.827052
H     10.62451      5.87395     13.33282        -0.312254      0.074735     -0.761919
H     10.35389     15.10445     13.33282         0.151298     -0.279732     -0.772893
H      7.64558     10.35389      5.87395         0.877216     -0.251813      0.208416
H      7.64558     10.62451     15.10445         0.254171      0.018855     -0.066864
H     13.33282     10.62451      5.87395        -0.835873      0.142397      0.158737
H     13.33282     10.35389     15.10445        -0.296727     -0.073544     -0.041237
H      5.87395      7.64558     10.35389         0.096419      0.426404      0.008625
H     15.10445      7.64558     10.62451        -0.095136      0.549028      0.123697
H      5.87395     13.33282     10.62451         0.007797     -0.939275      0.104830
H     15.10445     13.33282     10.35389        -0.178058     -0.380118      0.024447
H      5.87395     10.35389      7.64558         0.297418      0.052026      0.371324
H     15.10445     10.62451      7.64558        -0.124639     -0.139903      0.621887
H      5.87395     10.62451     13.33282        -0.049700      0.438529     -0.691837
H     15.10445     10.35389     13.33282         0.170394     -0.459590     -0.914418
H     10.35389      7.64558      5.87395         0.022217      0.504401      0.355574
H     10.62451      7.64558     15.10445         0.240950      0.698625     -0.089109
H     10.62451     13.33282      5.87395         0.081636     -0.564793      0.218155
H     10.35389     13.33282     15.10445         0.075145     -0.347182     -0.125355
H      7.64558      5.87395     10.35389         0.394838      0.128282      0.063370
H      7.64558     15.10445     10.62451         0.390405     -0.128189      0.215305
H     13.33282      5.87395     10.62451        -0.308886      0.129469     -0.012369
H     13.33282     15.10445     10.35389        -0.638725     -0.175698      0.178585
H     12.45634     12.45634     19.01126         0.261685      0.270031     -0.222398
H     19.01126     19.01126     19.01126        -0.250629     -0.268480     -0.237522
H     19.01126     12.45634     12.45634        -0.245035      0.269796      0.239874
H     12.45634     19.01126     12.45634         0.294535     -0.228261      0.236179
C     10.35284      5.61067      6.59456         0.392604     -0.345442     -1.240007
C     10.62556     15.36773      6.59456        -0.224279      0.651488     -0.620517
C     10.62556      5.61067     14.38384         0.360676     -0.265140      0.793800
C     10.35284     15.36773     14.38384        -0.192306      0.350707      0.962065
C      6.59456     10.35284      5.61067        -1.291423      0.037432     -0.215417
C      6.59456     10.62556     15.36773        -0.621891      0.063346      0.356565
C     14.38384     10.62556      5.61067         1.388697     -0.167574     -0.621414
C     14.38384     10.35284     15.36773         0.324247     -0.128456      0.393475
C      5.61067      6.59456     10.35284        -0.256513     -0.624657     -0.022077
C     15.36773      6.59456     10.62556         0.372782     -0.855584     -0.089678
C      5.61067     14.38384     10.62556        -0.161790      1.071599     -0.245809
C     15.36773     14.38384     10.35284         0.457106      0.781335     -0.070637
C      5.61067     10.35284      6.59456        -0.315356     -0.114092     -0.624318
C     15.36773     10.62556      6.59456         0.327358      0.116166     -0.555151
C      5.61067     10.62556     14.38384        -0.305935     -0.160881      1.241412
C     15.36773     10.35284     14.38384         0.180301      0.171206      1.270185
C     10.35284      6.59456      5.61067        -0.055143     -0.704980     -0.446552
C     10.62556      6.59456     15.36773        -0.060267     -0.854821      0.378953
C     10.62556     14.38384      5.61067        -0.480995      0.399549     -0.773976
C     10.35284     14.38384     15.36773        -0.165294      0.647267      0.494812
C      6.59456      5.61067     10.35284        -0.543545     -0.318162      0.016022
C      6.59456     15.36773     10.62556        -0.289338      0.482201      0.078619
C     14.38384      5.61067     10.62556         0.419804     -0.324874      0.027315
C     14.38384     15.36773     10.35284         1.061678      0.388372     -0.106261
C     10.40319      3.19606      7.29314        -0.012838      0.891915     -0.364718
C     10.35913      4.25547      6.23373         0.036197     -0.369109      0.292736
C      0.08601      7.29314      7.29314        -0.013656     -0.504854     -0.516522
C      0.13007      6.23373      6.23373        -0.068671      0.820513      0.074878
C      0.08601      3.19606      3.19606        -0.007280      0.685932      0.259278
C      0.13007      4.25547      4.25547         0.067840     -0.259025     -0.611774
C     10.40319      7.29314      3.19606        -0.052130     -1.076102      0.754941
C     10.35913      6.23373      4.25547        -0.050779      0.349801     -0.209707
C      7.29314     10.40319      3.19606        -1.023018     -0.053422      0.252961
C      6.23373     10.35913      4.25547         0.377231      0.111432     -0.520901
C      7.29314      0.08601      7.29314        -0.689944      0.017515     -0.360533
C      6.23373      0.13007      6.23373         0.174837      0.096216      0.111485
C      3.19606      0.08601      3.19606         0.650259      0.009182      0.165538
C      4.25547      0.13007      4.25547        -0.201108     -0.084415     -0.313379
C      3.19606     10.40319      7.29314         0.496085     -0.034460     -0.957224
C      4.25547     10.35913      6.23373        -0.131254     -0.024446      0.157681
C      3.19606      7.29314     10.40319         0.669400     -0.398109      0.006027
C      4.25547      6.23373     10.35913        -0.115220      0.172065      0.002798
C      7.29314      7.29314      0.08601        -0.435881     -0.296783     -0.015271
C      6.23373      6.23373      0.13007         0.197382      0.132698     -0.125784
C      3.19606      3.19606      0.08601         0.325461      0.548441     -0.020002
C      4.25547      4.25547      0.13007        -0.449152     -0.277858     -0.015915
C      7.29314      3.19606     10.40319        -0.284700      0.609136     -0.002133
C      6.23373      4.25547     10.35913         0.013720     -0.143390      0.019327
O     10.43466      3.58206      8.50569        -0.031386      0.039562      0.247979
O     10.54374     17.39634      8.50569         0.057493     -0.079373      0.528871
O     10.54374      3.58206     12.47271         0.031330      0.103669     -0.414604
O     10.43466     17.39634     12.47271         0.089613     -0.057541     -0.491372
O      8.50569     10.43466      3.58206         0.685673     -0.075859      0.037189
O      8.50569     10.54374     17.39634         0.720047      0.079997     -0.119809
O     12.47271     10.54374      3.58206        -0.619291      0.130062      0.210118
O     12.47271     10.43466     17.39634        -0.348355     -0.000828      0.036562
O      3.58206      8.50569     10.43466         0.019565      0.436885     -0.073294
O     17.39634      8.50569     10.54374        -0.070624      0.440840      0.052197
O      3.58206     12.47271     10.54374         0.124827     -0.619943     -0.002821
O     17.39634     12.47271     10.43466        -0.218142     -0.743572     -0.019550
O      3.58206     10.43466      8.50569         0.185463     -0.044621      0.796491
O     17.39634     10.54374      8.50569        -0.007577      0.045151      0.333864
O      3.58206     10.54374     12.47271        -0.002491      0.001828     -0.272973
O     17.39634     10.43466     12.47271        -0.008854     -0.003442     -0.306547
O     10.43466      8.50569      3.58206        -0.115279      0.527684     -0.090221
O     10.54374      8.50569     17.39634         0.057295      0.587170     -0.075346
O     10.54374     12.47271      3.58206         0.102880     -0.614902      0.116104
O     10.43466     12.47271     17.39634        -0.050580     -0.825125     -0.310510
O      8.50569      3.58206     10.43466         0.386915      0.022017     -0.059034
O      8.50569     17.39634     10.54374         0.622129     -0.147553      0.045672
O     12.47271      3.58206     10.54374        -0.515943      0.117535      0.026145
O     12.47271     17.39634     10.43466        -0.632388     -0.107245      0.050301
O     11.90042     11.90042     19.56718        -0.273373     -0.287408      0.221239
O     19.56718     19.56718     19.56718         0.303482      0.314645      0.290651
O     19.56718     11.90042     11.90042         0.279244     -0.317449     -0.243166
O     11.90042     19.56718     11.90042        -0.315804      0.218959     -0.201399
O      9.45224      1.03696      9.45224        -0.108213      0.132199     -0.049120
O      1.03696      9.45224      9.45224         0.140289     -0.137738     -0.046474
O      1.03696      1.03696      1.03696         0.079212      0.072558      0.090110
O      9.45224      9.45224      1.03696        -0.073584     -0.128248      0.142496
Zr     10.48920      2.52580     10.48920         0.037229     -0.143283      0.156239
Zr     10.48920     18.45260     10.48920        -0.178767      0.241920     -0.381346
Zr     10.48920     10.48920      2.52580         0.113932      0.360783     -0.302174
Zr     10.48920     10.48920     18.45260        -0.042275     -0.256970      0.287653
Zr      2.52580     10.48920     10.48920        -0.289763      0.094509      0.251090
Zr     18.45260     10.48920     10.48920         0.178260     -0.145126     -0.043459
Pd      9.34071     14.41225      9.21159        -0.019988     -0.026290     -0.031224
Pd      8.60638     13.67274     13.12799        -0.027585      0.042849     -0.019653
Pd     12.02980     14.36222      8.80484         0.042580      0.019410      0.063794
Pd     12.57586     12.84650     10.83002         0.024241     -0.076768      0.033308
Pd     12.10197      7.14209     12.60635         0.027626     -0.018119     -0.023524
Pd     11.06847     15.05564     11.37275        -0.014273      0.006055     -0.053616
Pd      9.92289     12.70396     11.00142        -0.062340      0.071240     -0.031594
Pd     13.54926     12.22212      8.04143        -0.014357      0.057942     -0.003929
Pd     11.52624     11.62545      6.11365         0.022925      0.052614      0.076956
Pd      7.91765      8.22040      7.51118        -0.048644     -0.021066     -0.047116
Pd      8.70243     11.77431      6.82282         0.029067      0.019384      0.072097
Pd     10.16443      9.51102      8.20845        -0.074825     -0.043563      0.014506
Pd      8.48980     14.48329      6.68648        -0.019935     -0.007693      0.028801
Pd     12.34509      9.19716      6.84502        -0.052719     -0.021564      0.133950
Pd      9.79044      9.63043      5.59141         0.028508      0.024669     -0.018402
Pd      6.90036      9.45793     12.20663         0.041585      0.009578      0.020329
Pd     12.26182      6.73636      7.92926         0.014961      0.085578      0.037024
Pd      5.88773     10.50232      9.78592         0.021289     -0.015683      0.000251
Pd      7.52840      7.11712     13.32266        -0.030286     -0.077564     -0.063581
Ir     11.56826      9.70398     13.09016        -0.053397     -0.015538      0.030458
Ir     13.43747      9.14096     11.52333        -0.013194      0.091262     -0.070811
Ir      9.27098      8.83951     14.01359         0.030736      0.045406     -0.010262
Ir     10.42162     10.79830     15.12251        -0.024446     -0.012791      0.013550
Ir      7.28863     12.01662     11.40991         0.008739     -0.045601      0.018936
Ir     14.58290     11.04890     10.36638         0.002528     -0.014774     -0.015841
Ir     12.23053     10.54422      9.55476         0.046161      0.015728     -0.048632
Ir      8.91618     11.07482     12.97174         0.036445     -0.100977      0.039105
Ir     10.09849      9.96936     11.00847        -0.020621     -0.016034      0.084379
Ir     13.52806     11.41720     12.69238        -0.068446     -0.013869      0.021925
Ir     11.26261     12.23856     13.16754        -0.038114     -0.001490     -0.027099
Ir      8.42618     11.19250      9.31952        -0.093103      0.013692      0.010391
Ir     11.59427      8.01918     10.08982        -0.010098      0.023011     -0.053112
Ir      7.18586     13.12899      8.61831        -0.008419     -0.024726     -0.018136
Ir      9.53341      6.96518      9.26185        -0.070061      0.011523     -0.040807
Ir      8.02076      8.80747     10.02666        -0.017308      0.040172     -0.072238
Ir     10.71129     12.13360      8.49987         0.055833     -0.013136     -0.001823
Ir      9.52501      7.65842     11.75690        -0.007883      0.038056     -0.023793
Ir     13.82302      8.68283      8.99075        -0.050790     -0.071262      0.082732
