32
# total energy = -234.69210175 eVH      7.29926     -2.19571     -0.00000        -0.005651     -0.007159      0.000000
H      0.33010      4.60029     -0.00000         0.005651      0.007159      0.000000
H      4.72115      5.98424     -0.00000        -0.008735      0.002625      0.000000
H      2.90821     -3.57966     -0.00000         0.008735     -0.002625      0.000000
C      6.12771     -3.80143     -0.00000        -0.039029     -0.065171      0.000000
C      1.50166      6.20600     -0.00000         0.039029      0.065171      0.000000
C      2.84062      6.62801      0.00000        -0.069344      0.031014      0.000000
C      4.78874     -4.22343      0.00000         0.069344     -0.031014      0.000000
C      6.95902      2.19330     -0.00000         0.041177      0.012978      0.000000
C      4.49210      1.41579      0.00000        -0.019402     -0.006115     -0.000000
C      0.67035      0.21128     -0.00000        -0.041177     -0.012978     -0.000000
C      3.13726      0.98878     -0.00000         0.019402      0.006115      0.000000
C      5.81909     -5.15741     -0.00000        -0.019093      0.060579      0.000000
C      1.81027      7.56199     -0.00000         0.019093     -0.060579      0.000000
N      4.70477      2.78975     -0.00000        -0.011380      0.015282      0.000000
N      6.02807      3.18109      0.00000        -0.012889      0.018393      0.000000
N      6.33033     -2.49304      0.00000         0.019937      0.030927     -0.000000
N      2.92459     -0.38518     -0.00000         0.011380     -0.015282      0.000000
N      1.60129     -0.77651     -0.00000         0.012889     -0.018393      0.000000
N      1.29903      4.89761      0.00000        -0.019937     -0.030927     -0.000000
N      5.45415      0.41208     -0.00000        -0.000560     -0.019046      0.000000
N      6.76270      0.85023     -0.00000        -0.000013     -0.022460     -0.000000
N      3.75684      5.67225     -0.00000         0.034067     -0.013906      0.000000
N      2.17521      1.99250     -0.00000         0.000560      0.019046      0.000000
N      0.86667      1.55435      0.00000         0.000013      0.022460     -0.000000
N      3.87252     -3.26767     -0.00000        -0.034067      0.013906      0.000000
O      1.42112      8.79670     -0.00000        -0.013385      0.042469      0.000000
O      6.20824     -6.39213     -0.00000         0.013385     -0.042469      0.000000
Ir      6.81519     -8.31787     -0.00000         0.002361     -0.007492      0.000000
Ir      0.81417     10.72245     -0.00000        -0.002361      0.007492      0.000000
Ir      2.98810      3.82491     -0.00000        -0.002373      0.007529      0.000000
Ir      4.64126     -1.42033     -0.00000         0.002373     -0.007529      0.000000
