152
# total energy = -1061.43322270 eVH     10.35389      5.87395      7.64558        -0.136697      0.119322      0.987019
H     10.62451     15.10445      7.64558         0.342931     -0.091725      0.793702
H     10.62451      5.87395     13.33282        -0.121982      0.086331     -0.483666
H     10.35389     15.10445     13.33282         0.087076     -0.190006     -0.392835
H      7.64558     10.35389      5.87395         0.911550      0.145307      0.211133
H      7.64558     10.62451     15.10445         0.206341     -0.020696     -0.065153
H     13.33282     10.62451      5.87395        -0.644836     -0.005725      0.166540
H     13.33282     10.35389     15.10445        -0.323666     -0.069492     -0.062137
H      5.87395      7.64558     10.35389         0.138779      0.353920     -0.063783
H     15.10445      7.64558     10.62451        -0.136358      0.516267      0.212198
H      5.87395     13.33282     10.62451         0.123228     -0.591753      0.061807
H     15.10445     13.33282     10.35389        -0.235445     -0.428317      0.089188
H      5.87395     10.35389      7.64558         0.172474      0.220942      0.366964
H     15.10445     10.62451      7.64558        -0.147519     -0.327165      0.686255
H      5.87395     10.62451     13.33282         0.038001      0.118077     -0.707683
H     15.10445     10.35389     13.33282         0.087557     -0.268257     -0.729732
H     10.35389      7.64558      5.87395        -0.106933      0.432770      0.237824
H     10.62451      7.64558     15.10445         0.395313      0.643951     -0.109048
H     10.62451     13.33282      5.87395         0.165160     -0.583790      0.105195
H     10.35389     13.33282     15.10445         0.212584     -0.737039     -0.074312
H      7.64558      5.87395     10.35389         0.470283      0.153610     -0.130374
H      7.64558     15.10445     10.62451         0.421115     -0.162081      0.380114
H     13.33282      5.87395     10.62451        -0.375794      0.157223     -0.070165
H     13.33282     15.10445     10.35389        -0.560993     -0.275956      0.119380
H     12.45634     12.45634     19.01126         0.234804      0.264716     -0.245001
H     19.01126     19.01126     19.01126        -0.260743     -0.261577     -0.227379
H     19.01126     12.45634     12.45634        -0.232946      0.271696      0.240431
H     12.45634     19.01126     12.45634         0.279034     -0.211143      0.253655
C     10.35284      5.61067      6.59456         0.283319     -0.288878     -0.833567
C     10.62556     15.36773      6.59456        -0.214917      0.640186     -0.270272
C     10.62556      5.61067     14.38384         0.266032     -0.309533      0.509889
C     10.35284     15.36773     14.38384        -0.116358      0.265574      0.259383
C      6.59456     10.35284      5.61067        -0.883030     -0.123342     -0.218414
C      6.59456     10.62556     15.36773        -0.528111      0.049518      0.344463
C     14.38384     10.62556      5.61067         0.863579     -0.044428     -0.616440
C     14.38384     10.35284     15.36773         0.273183     -0.087232      0.370055
C      5.61067      6.59456     10.35284        -0.389972     -0.370950      0.061655
C     15.36773      6.59456     10.62556         0.285634     -0.598295     -0.104562
C      5.61067     14.38384     10.62556        -0.156445      0.537532     -0.320106
C     15.36773     14.38384     10.35284         0.405244      0.818034     -0.100869
C      5.61067     10.35284      6.59456        -0.278214     -0.136303     -0.125857
C     15.36773     10.62556      6.59456         0.229138      0.268079     -0.551216
C      5.61067     10.62556     14.38384        -0.343495     -0.026793      1.198843
C     15.36773     10.35284     14.38384         0.296626     -0.053625      0.994861
C     10.35284      6.59456      5.61067         0.074951     -0.287053     -0.470980
C     10.62556      6.59456     15.36773        -0.005917     -0.832890      0.212861
C     10.62556     14.38384      5.61067        -0.396704      0.074459     -0.841993
C     10.35284     14.38384     15.36773        -0.245622      0.901739      0.240213
C      6.59456      5.61067     10.35284        -0.362589     -0.275946      0.236691
C      6.59456     15.36773     10.62556        -0.433322      0.559966     -0.002266
C     14.38384      5.61067     10.62556         0.447594     -0.336430      0.061873
C     14.38384     15.36773     10.35284         0.907565      0.264028     -0.056328
C     10.40319      3.19606      7.29314         0.004715      0.555655     -0.309617
C     10.35913      4.25547      6.23373        -0.003676     -0.501399      0.434514
C      0.08601      7.29314      7.29314        -0.013136     -0.904455     -0.528165
C      0.13007      6.23373      6.23373        -0.161912      0.869337      0.144744
C      0.08601      3.19606      3.19606        -0.013224      0.372584      0.379557
C      0.13007      4.25547      4.25547         0.057073     -0.184286     -0.619872
C     10.40319      7.29314      3.19606        -0.048437     -1.097335      0.761719
C     10.35913      6.23373      4.25547         0.011226      0.334905     -0.193979
C      7.29314     10.40319      3.19606        -1.184950     -0.078618      0.333866
C      6.23373     10.35913      4.25547         0.273607      0.028355     -0.657369
C      7.29314      0.08601      7.29314        -0.869115     -0.003984     -0.412550
C      6.23373      0.13007      6.23373         0.294265      0.048171      0.131533
C      3.19606      0.08601      3.19606         0.323759     -0.001607      0.418758
C      4.25547      0.13007      4.25547        -0.286359     -0.040279     -0.171289
C      3.19606     10.40319      7.29314         0.505134     -0.044918     -1.005295
C      4.25547     10.35913      6.23373        -0.295567     -0.060960      0.105287
C      3.19606      7.29314     10.40319         1.029537     -0.489802      0.003483
C      4.25547      6.23373     10.35913        -0.169264      0.167574      0.000196
C      7.29314      7.29314      0.08601        -0.446775     -0.280197     -0.007132
C      6.23373      6.23373      0.13007         0.217384      0.096643     -0.138953
C      3.19606      3.19606      0.08601         0.345068      0.784354     -0.008994
C      4.25547      4.25547      0.13007        -0.466452     -0.195884      0.048697
C      7.29314      3.19606     10.40319        -0.204785      0.530252      0.023121
C      6.23373      4.25547     10.35913         0.010201     -0.329809      0.036125
O     10.43466      3.58206      8.50569        -0.023007      0.134568      0.374001
O     10.54374     17.39634      8.50569         0.049221      0.066448      0.322399
O     10.54374      3.58206     12.47271         0.041967      0.201689     -0.571163
O     10.43466     17.39634     12.47271         0.026070      0.001201     -0.424612
O      8.50569     10.43466      3.58206         0.754222     -0.071608      0.042769
O      8.50569     10.54374     17.39634         0.870176      0.023034     -0.158505
O     12.47271     10.54374      3.58206        -0.347305      0.039892      0.073187
O     12.47271     10.43466     17.39634        -0.381772     -0.033888      0.040836
O      3.58206      8.50569     10.43466        -0.082928      0.316584     -0.077390
O     17.39634      8.50569     10.54374        -0.111653      0.443415      0.038576
O      3.58206     12.47271     10.54374         0.137386     -0.771387     -0.011398
O     17.39634     12.47271     10.43466        -0.245570     -0.651385     -0.013758
O      3.58206     10.43466      8.50569         0.123819     -0.040233      0.783921
O     17.39634     10.54374      8.50569         0.016490      0.040784      0.317632
O      3.58206     10.54374     12.47271         0.069920      0.017789     -0.461560
O     17.39634     10.43466     12.47271         0.019862      0.016599     -0.273110
O     10.43466      8.50569      3.58206        -0.066017      0.606204     -0.058336
O     10.54374      8.50569     17.39634         0.021420      0.905452     -0.216025
O     10.54374     12.47271      3.58206         0.063043     -0.365975      0.087149
O     10.43466     12.47271     17.39634        -0.057033     -0.636206     -0.195383
O      8.50569      3.58206     10.43466         0.341790      0.073695     -0.051611
O      8.50569     17.39634     10.54374         0.526041     -0.145148      0.000331
O     12.47271      3.58206     10.54374        -0.382510      0.069187      0.033297
O     12.47271     17.39634     10.43466        -0.796192     -0.121865      0.057198
O     11.90042     11.90042     19.56718        -0.248878     -0.282068      0.235943
O     19.56718     19.56718     19.56718         0.295354      0.297223      0.246365
O     19.56718     11.90042     11.90042         0.231196     -0.301508     -0.280906
O     11.90042     19.56718     11.90042        -0.276038      0.180577     -0.266149
O      9.45224      1.03696      9.45224        -0.117352      0.102029     -0.080831
O      1.03696      9.45224      9.45224         0.140855     -0.141055     -0.170079
O      1.03696      1.03696      1.03696         0.131111      0.199865      0.002668
O      9.45224      9.45224      1.03696        -0.210505     -0.157656      0.048505
Zr     10.48920      2.52580     10.48920         0.010518     -0.238417      0.154177
Zr     10.48920     18.45260     10.48920        -0.298528      0.281048     -0.179328
Zr     10.48920     10.48920      2.52580         0.316021      0.424828     -0.222783
Zr     10.48920     10.48920     18.45260         0.019259      0.012984      0.485271
Zr      2.52580     10.48920     10.48920        -0.549738      0.053989      0.324057
Zr     18.45260     10.48920     10.48920         0.274943     -0.160620      0.014093
Pd      9.12802     14.55241      9.20745         0.007182      0.038605      0.017551
Pd      8.42073     13.23558     13.80639         0.013878      0.007644      0.028579
Pd     12.10986     14.13438      8.66135        -0.018514     -0.031228      0.038872
Pd     12.27964     12.75746     10.89716        -0.013361      0.004960     -0.005127
Pd     11.82135      7.08653     11.98621        -0.002640     -0.040662      0.002019
Pd     11.10142     15.32031     10.88154         0.034017     -0.016039      0.018405
Pd      9.64470     13.13698     11.44043        -0.037911     -0.016576     -0.035210
Pd     14.02423     12.40799      8.05831         0.021394      0.011571     -0.027689
Pd     11.60872     11.75543      6.78910         0.026719     -0.000188     -0.041824
Pd      7.54123      8.52679      7.20777        -0.048591      0.029241     -0.042106
Pd      8.67204     11.98912      6.92249        -0.022166      0.026899     -0.026067
Pd      9.82027      9.85074      8.03783        -0.043228      0.012947      0.023882
Pd      8.48507     14.63389      6.55586         0.021719      0.027121      0.004787
Pd     12.13134      9.06394      6.87941        -0.034013     -0.019906     -0.002029
Pd      9.97133      9.97856      5.42764         0.002900      0.010145     -0.031441
Pd      6.93836      9.18887     12.18810        -0.005262      0.060007      0.000512
Pd     12.44705      6.53812      7.71774        -0.028948      0.004582      0.001789
Pd      5.59641     10.62376     10.11478         0.040748      0.005835     -0.018872
Pd      7.62664      6.64223     12.74747         0.003769      0.028841     -0.006235
Ir     11.30350      9.56165     12.89300        -0.041184     -0.019727      0.056261
Ir     13.10286      9.22915     11.16290         0.106625      0.073170     -0.154659
Ir      9.16938      8.43563     13.79442        -0.038127     -0.007389     -0.033352
Ir     10.27913     10.37291     15.12150        -0.023383      0.036005     -0.013400
Ir      7.10370     11.88404     11.85383        -0.002740     -0.026638     -0.009807
Ir     14.46657     11.15421     10.37863        -0.074631     -0.033232      0.013380
Ir     12.31403     10.61110      9.12630         0.017550     -0.047437     -0.015854
Ir      8.93607     10.80682     12.93119        -0.022368     -0.011087      0.055251
Ir     10.04772     10.28791     10.67004         0.002013      0.009722     -0.067285
Ir     13.30605     11.23533     12.64905         0.042351      0.012805     -0.009149
Ir     11.10674     12.04662     13.40060         0.043249      0.044769     -0.046247
Ir      7.96935     11.71529      9.53891        -0.025381     -0.035943     -0.006388
Ir     11.34291      8.13325      9.51960         0.004750     -0.003355     -0.044527
Ir      6.93462     13.46229      8.27869         0.026884      0.000176      0.014826
Ir      9.12936      7.27191      8.84181         0.002274     -0.063447     -0.059693
Ir      7.80026      9.19466      9.72804        -0.100474      0.098109      0.007478
Ir     10.37791     12.30260      9.00342         0.034594      0.036604      0.031042
Ir      9.36884      7.89278     11.29293        -0.040395     -0.044259      0.067571
Ir     13.79666      8.47878      8.85630        -0.003763      0.006168      0.048873
