152
# total energy = -1005.97182681 eVH     10.35389      5.87395      7.64558         0.251654      0.038421      0.638407
H     10.62451     15.10445      7.64558        -0.109845     -0.143644      0.531949
H     10.62451      5.87395     13.33282         0.489167      0.120581     -0.587277
H     10.35389     15.10445     13.33282         0.069016     -0.184795     -0.541532
H      7.64558     10.35389      5.87395         0.369543      0.038765      0.173606
H      7.64558     10.62451     15.10445         0.688387      0.468203     -0.043032
H     13.33282     10.62451      5.87395        -0.531240      0.415917      0.074423
H     13.33282     10.35389     15.10445        -0.795435     -0.092228     -0.000643
H      5.87395      7.64558     10.35389         0.255813      0.832958     -0.242108
H     15.10445      7.64558     10.62451        -0.095753      0.485313      0.284113
H      5.87395     13.33282     10.62451         0.155404     -0.697555     -0.164052
H     15.10445     13.33282     10.35389        -0.003003     -1.048855     -0.329904
H      5.87395     10.35389      7.64558         0.248785      0.115848      0.577104
H     15.10445     10.62451      7.64558        -0.112945      0.409519      0.772243
H      5.87395     10.62451     13.33282         0.142380      0.339401     -0.692962
H     15.10445     10.35389     13.33282        -0.037556     -0.073434     -0.704337
H     10.35389      7.64558      5.87395         0.357773      1.054240     -0.007617
H     10.62451      7.64558     15.10445         0.536813      0.536528     -0.117558
H     10.62451     13.33282      5.87395        -0.398758     -0.835144      0.190738
H     10.35389     13.33282     15.10445        -0.042156     -0.432410     -0.217026
H      7.64558      5.87395     10.35389         0.854108      0.084604     -0.285901
H      7.64558     15.10445     10.62451         0.825637     -0.202288     -0.001800
H     13.33282      5.87395     10.62451        -0.791277      0.187771      0.593974
H     13.33282     15.10445     10.35389        -0.443059     -0.105976     -0.136140
H     12.45634     12.45634     19.01126         0.235488      0.271096     -0.239415
H     19.01126     19.01126     19.01126        -0.261921     -0.240683     -0.261496
H     19.01126     12.45634     12.45634        -0.267049      0.268200      0.220112
H     12.45634     19.01126     12.45634         0.232748     -0.257200      0.275909
C     10.35284      5.61067      6.59456        -0.429639     -0.680386      0.132449
C     10.62556     15.36773      6.59456         0.067035      0.362403     -0.310718
C     10.62556      5.61067     14.38384        -0.328193     -0.379804     -0.292174
C     10.35284     15.36773     14.38384        -0.005967      0.340159      0.531263
C      6.59456     10.35284      5.61067        -0.305343     -0.006203     -0.308583
C      6.59456     10.62556     15.36773        -0.243933     -0.216741      0.788803
C     14.38384     10.62556      5.61067        -0.229107     -0.395276     -0.528878
C     14.38384     10.35284     15.36773         0.968138     -0.066309      0.256272
C      5.61067      6.59456     10.35284        -0.534828     -0.012481     -0.008054
C     15.36773      6.59456     10.62556         0.539461      0.013003     -0.249551
C      5.61067     14.38384     10.62556        -0.317099      0.979363      0.080895
C     15.36773     14.38384     10.35284         0.294998      1.049216      0.049715
C      5.61067     10.35284      6.59456        -0.196814     -0.171382     -0.610367
C     15.36773     10.62556      6.59456         0.445272     -0.270976      0.115105
C      5.61067     10.62556     14.38384        -0.690707     -0.343289     -0.092406
C     15.36773     10.35284     14.38384         0.381833     -0.063987      1.026152
C     10.35284      6.59456      5.61067        -0.217459     -0.307745     -0.655527
C     10.62556      6.59456     15.36773        -0.267107      0.131027      0.455485
C     10.62556     14.38384      5.61067         0.195647      1.061734     -0.343889
C     10.35284     14.38384     15.36773         0.014038      0.544853      0.439943
C      6.59456      5.61067     10.35284        -0.125996     -0.777877      0.260841
C      6.59456     15.36773     10.62556        -0.999898      0.280351      0.080311
C     14.38384      5.61067     10.62556         0.491775     -0.554370     -0.369091
C     14.38384     15.36773     10.35284         0.219391      0.461450     -0.098151
C     10.40319      3.19606      7.29314         0.014642      0.673215     -0.479441
C     10.35913      4.25547      6.23373         0.088553     -0.716370     -0.018491
C      0.08601      7.29314      7.29314        -0.044449     -0.407967     -0.316028
C      0.13007      6.23373      6.23373        -0.022917      0.090908      0.574762
C      0.08601      3.19606      3.19606        -0.010986      1.282253      0.284977
C      0.13007      4.25547      4.25547         0.051133     -0.780991     -0.158974
C     10.40319      7.29314      3.19606         0.011575     -0.320190      0.322459
C     10.35913      6.23373      4.25547         0.024626      0.006982     -0.827223
C      7.29314     10.40319      3.19606        -0.310018      0.022561      0.562027
C      6.23373     10.35913      4.25547         0.193842      0.064359     -0.082623
C      7.29314      0.08601      7.29314        -0.511702     -0.065446     -0.377731
C      6.23373      0.13007      6.23373         0.676772     -0.056969      0.477381
C      3.19606      0.08601      3.19606         0.742891     -0.033014      0.571298
C      4.25547      0.13007      4.25547        -0.583788     -0.088092     -0.542167
C      3.19606     10.40319      7.29314         0.478687     -0.012191     -0.762224
C      4.25547     10.35913      6.23373        -0.367992      0.060618      0.196562
C      3.19606      7.29314     10.40319         0.297192     -1.280726      0.047011
C      4.25547      6.23373     10.35913        -0.808759      0.110095      0.148450
C      7.29314      7.29314      0.08601        -0.407863     -0.376805     -0.026536
C      6.23373      6.23373      0.13007         0.463944      0.216315     -0.015233
C      3.19606      3.19606      0.08601         0.486483      0.375715     -0.041403
C      4.25547      4.25547      0.13007        -0.158124     -0.648153     -0.035516
C      7.29314      3.19606     10.40319        -0.327236      0.441972      0.076540
C      6.23373      4.25547     10.35913         0.293519     -0.679968      0.147703
O     10.43466      3.58206      8.50569        -0.018215      0.107404      0.503606
O     10.54374     17.39634      8.50569         0.036180     -0.175383      0.488597
O     10.54374      3.58206     12.47271         0.053134     -0.091532     -0.182430
O     10.43466     17.39634     12.47271        -0.039077     -0.183543     -0.539602
O      8.50569     10.43466      3.58206         0.298059     -0.006222      0.024120
O      8.50569     10.54374     17.39634         0.624755      0.035540     -0.143438
O     12.47271     10.54374      3.58206        -0.718445      0.085916      0.095095
O     12.47271     10.43466     17.39634        -0.437390      0.024021     -0.108437
O      3.58206      8.50569     10.43466         0.175083      1.042856     -0.038725
O     17.39634      8.50569     10.54374        -0.160513      0.542059      0.076425
O      3.58206     12.47271     10.54374         0.086104     -0.371302      0.049640
O     17.39634     12.47271     10.43466        -0.156640     -0.546184     -0.022641
O      3.58206     10.43466      8.50569         0.079721     -0.068642      0.590253
O     17.39634     10.54374      8.50569        -0.111448      0.066426      0.527365
O      3.58206     10.54374     12.47271         0.037293      0.046079     -0.517633
O     17.39634     10.43466     12.47271        -0.224282     -0.038279     -0.608607
O     10.43466      8.50569      3.58206        -0.040050      0.450101      0.137420
O     10.54374      8.50569     17.39634         0.051265      0.532632     -0.158860
O     10.54374     12.47271      3.58206         0.006041     -1.024920      0.199980
O     10.43466     12.47271     17.39634         0.040842     -0.720600     -0.174086
O      8.50569      3.58206     10.43466         0.511080      0.146459     -0.055547
O      8.50569     17.39634     10.54374         0.486671     -0.195413      0.015089
O     12.47271      3.58206     10.54374        -0.629753      0.227965      0.011100
O     12.47271     17.39634     10.43466        -0.226128      0.065809     -0.053812
O     11.90042     11.90042     19.56718        -0.239243     -0.290200      0.247671
O     19.56718     19.56718     19.56718         0.310884      0.295392      0.301929
O     19.56718     11.90042     11.90042         0.292435     -0.264049     -0.232937
O     11.90042     19.56718     11.90042        -0.241475      0.291351     -0.327979
O      9.45224      1.03696      9.45224        -0.018526      0.088661     -0.072865
O      1.03696      9.45224      9.45224         0.092300     -0.091762     -0.135720
O      1.03696      1.03696      1.03696         0.091868      0.188998      0.050899
O      9.45224      9.45224      1.03696        -0.108138     -0.104973      0.035034
Zr     10.48920      2.52580     10.48920        -0.127361     -0.286201     -0.037984
Zr     10.48920     18.45260     10.48920        -0.074763      0.215206      0.077587
Zr     10.48920     10.48920      2.52580         0.017204     -0.402657     -0.259140
Zr     10.48920     10.48920     18.45260        -0.281052     -0.091472      0.321414
Zr      2.52580     10.48920     10.48920        -0.382218      0.238902      0.285024
Zr     18.45260     10.48920     10.48920         0.235870     -0.003749     -0.223338
Pd     13.59808      8.95778      9.23748         0.005652      0.007377     -0.006833
Pd      5.63199      9.87761     10.14698         0.000565     -0.004914      0.001406
Pd      6.78449     11.85847     11.70116        -0.005025     -0.002566      0.003893
Pd     12.06610     13.01437      7.37074         0.005217     -0.005634     -0.004612
Pd     11.88614      7.73644      7.45841        -0.000370      0.005568     -0.001199
Pd      8.31267      6.86364      6.59036        -0.005330      0.006895     -0.008503
Pd     10.65654     11.17628      5.64025        -0.009149     -0.001990      0.004196
Pd     14.40146      8.55190      6.75424         0.001703     -0.001075     -0.003560
Pd      9.68290     11.73027      8.11265        -0.003433      0.002008      0.002803
Pd      6.76642      6.80021     12.31884        -0.007155     -0.000597      0.003192
Pd      6.52116      8.01338      8.09658         0.015429      0.035803     -0.032276
Pd      6.53835      8.50143     14.35283        -0.006777     -0.002372      0.004023
Pd     11.50104      6.52570      9.93087        -0.001641     -0.004578     -0.001608
Pd      9.52580      9.20579      7.13915        -0.008089      0.001801      0.004767
Pd      8.98326     13.98551      9.31695         0.000285      0.004019      0.005647
Pd      9.48170      7.37133     11.72922        -0.004725     -0.000537     -0.002481
Pd     10.61326      8.98800      9.68309         0.000337     -0.003727      0.001785
Pd      9.33822     11.53241     10.69607         0.000908      0.005729      0.006215
Pd      8.90791      7.04913      9.15393        -0.011692      0.002778     -0.009902
Pd      8.55274      6.57414     14.24780         0.000105      0.003931     -0.005637
Pd      7.65951      9.33456     11.97570        -0.005779     -0.003555      0.009853
Pd     11.98149     10.38147      7.72924        -0.008659      0.002839      0.003715
Pd      7.13526     12.01448      9.05324        -0.004153      0.002808      0.003582
Pd      8.12095      9.60354      9.36537        -0.001769     -0.001793      0.015232
Pd     14.02457      6.48335      8.51425        -0.002661      0.004284      0.000841
Pd     12.60383      8.38196     11.59171        -0.001341      0.002753     -0.003437
Pd      8.77213     11.57592     13.40176        -0.002289      0.003276      0.001538
Pd     13.89505     11.94528      8.96108        -0.004091     -0.006226      0.003462
Pd     12.95990     10.69175     13.05652        -0.008430      0.002334      0.006331
Pd     14.79502     10.44773     11.09280        -0.004952     -0.002004      0.010330
Pd     12.08343     10.89698     10.52287        -0.005551     -0.001387      0.004778
Pd     11.44049     13.34982      9.93562         0.002962     -0.005363     -0.008027
Pd     13.60348     12.92336     11.62711        -0.001976     -0.001758      0.000463
Pd     11.12580     12.60398     12.53496        -0.002945      0.004925     -0.002301
Pd     10.96058     11.05366     14.81075        -0.008494      0.004038      0.000561
Pd     10.51551      9.74895     12.37572        -0.004975     -0.004726      0.003639
Pd      9.08951      9.13826     14.41041        -0.007196      0.003951      0.003498
Pd      8.83319     13.84741     12.01076        -0.004832      0.004997      0.004957
