152
# total energy = -1092.35667318 eVH     10.35389      5.87395      7.64558         0.773211     -0.558814      1.516714
H     10.62451     15.10445      7.64558        -0.772991      0.798297      1.898405
H     10.62451      5.87395     13.33282         0.417741     -0.185601     -1.714505
H     10.35389     15.10445     13.33282        -0.630045      0.370814     -1.830262
H      7.64558     10.35389      5.87395         0.368287     -0.045938     -0.005229
H      7.64558     10.62451     15.10445         0.459117     -0.083607      0.046603
H     13.33282     10.62451      5.87395        -0.495360      0.005863      0.093543
H     13.33282     10.35389     15.10445        -0.494962      0.141180      0.025203
H      5.87395      7.64558     10.35389         0.043085      1.364633     -0.144166
H     15.10445      7.64558     10.62451        -0.013386      0.668438     -0.001797
H      5.87395     13.33282     10.62451        -0.063763     -0.532203      0.007324
H     15.10445     13.33282     10.35389         0.243927     -1.587967      0.187443
H      5.87395     10.35389      7.64558        -0.362027     -0.270669     -0.075531
H     15.10445     10.62451      7.64558         0.301030      0.222036      0.067630
H      5.87395     10.62451     13.33282        -0.195891      0.072158      0.050789
H     15.10445     10.35389     13.33282         0.061376     -0.179127     -0.031840
H     10.35389      7.64558      5.87395        -0.219353      0.507314     -0.084133
H     10.62451      7.64558     15.10445         0.116392      0.550334      0.289651
H     10.62451     13.33282      5.87395        -0.136454     -0.966320     -0.184697
H     10.35389     13.33282     15.10445        -0.230395     -0.718284      0.274906
H      7.64558      5.87395     10.35389         0.416590     -0.045683     -0.126854
H      7.64558     15.10445     10.62451         0.517545     -0.005080     -0.116314
H     13.33282      5.87395     10.62451        -0.419471     -0.003377      0.049888
H     13.33282     15.10445     10.35389        -0.471438      0.184511     -0.049875
H     12.45634     12.45634     19.01126         0.257864      0.250410     -0.243556
H     19.01126     19.01126     19.01126        -0.256256     -0.246703     -0.247647
H     19.01126     12.45634     12.45634        -0.254774      0.266857      0.234017
H     12.45634     19.01126     12.45634         0.260640     -0.265576      0.229967
C     10.35284      5.61067      6.59456        -0.549080     -0.090363     -1.792738
C     10.62556     15.36773      6.59456         0.464348      0.026870     -2.030192
C     10.62556      5.61067     14.38384        -0.427479     -0.044045      1.775755
C     10.35284     15.36773     14.38384         0.390554      0.184230      1.988955
C      6.59456     10.35284      5.61067        -0.614608     -0.013508     -0.255908
C      6.59456     10.62556     15.36773        -0.879529     -0.050276      0.156816
C     14.38384     10.62556      5.61067         0.738843      0.007628     -0.113088
C     14.38384     10.35284     15.36773         0.783578      0.007669      0.229383
C      5.61067      6.59456     10.35284        -0.078050     -0.860381      0.118056
C     15.36773      6.59456     10.62556         0.169038     -1.042419     -0.007354
C      5.61067     14.38384     10.62556        -0.230866      0.923174      0.004139
C     15.36773     14.38384     10.35284         0.110992      1.267184      0.007356
C      5.61067     10.35284      6.59456        -0.737997      0.027376     -2.050398
C     15.36773     10.62556      6.59456         0.668853     -0.004802     -2.006976
C      5.61067     10.62556     14.38384        -0.819723     -0.006430      1.992105
C     15.36773     10.35284     14.38384         0.592201     -0.086875      1.544292
C     10.35284      6.59456      5.61067         0.046737     -1.486398     -0.780052
C     10.62556      6.59456     15.36773        -0.015125     -1.634790      0.988952
C     10.62556     14.38384      5.61067         0.027940      1.790651     -0.924298
C     10.35284     14.38384     15.36773        -0.057624      1.770589      1.007844
C      6.59456      5.61067     10.35284        -0.379954     -0.910453     -0.166358
C      6.59456     15.36773     10.62556        -1.446529      0.721024      0.070009
C     14.38384      5.61067     10.62556         1.357097     -0.707359      0.000326
C     14.38384     15.36773     10.35284         0.353030      1.045274     -0.012111
C     10.40319      3.19606      7.29314         0.004149      0.558984     -0.392652
C     10.35913      4.25547      6.23373         0.045878     -0.840299      0.561413
C      0.08601      7.29314      7.29314         0.011358     -0.481930     -0.413184
C      0.13007      6.23373      6.23373        -0.029049      0.886120      0.589347
C      0.08601      3.19606      3.19606        -0.022252      0.569679      0.356107
C      0.13007      4.25547      4.25547        -0.025146     -0.951822     -0.477165
C     10.40319      7.29314      3.19606         0.055267     -0.495359      0.394462
C     10.35913      6.23373      4.25547         0.068183      0.727087     -0.536465
C      7.29314     10.40319      3.19606        -0.318001      0.004788      0.606218
C      6.23373     10.35913      4.25547         0.214580     -0.045439     -0.311050
C      7.29314      0.08601      7.29314        -0.290445      0.006504     -0.427593
C      6.23373      0.13007      6.23373         0.108212     -0.016357      0.453452
C      3.19606      0.08601      3.19606         0.304568      0.004998      0.616353
C      4.25547      0.13007      4.25547        -0.206004      0.054983     -0.353338
C      3.19606     10.40319      7.29314         0.299072      0.006912     -0.566647
C      4.25547     10.35913      6.23373        -0.240038      0.039168      0.590703
C      3.19606      7.29314     10.40319         0.245550     -0.418314      0.001758
C      4.25547      6.23373     10.35913        -0.693758      0.337151      0.034953
C      7.29314      7.29314      0.08601        -0.486270     -0.239724      0.001397
C      6.23373      6.23373      0.13007         0.080357      0.301046     -0.028220
C      3.19606      3.19606      0.08601         0.432899      0.270787     -0.016740
C      4.25547      4.25547      0.13007        -0.056977     -0.199900     -0.020246
C      7.29314      3.19606     10.40319        -0.302853      0.546604     -0.018160
C      6.23373      4.25547     10.35913         0.779043     -0.449218      0.044489
O     10.43466      3.58206      8.50569        -0.012960      0.188862      0.388315
O     10.54374     17.39634      8.50569        -0.010219     -0.214975      0.402080
O     10.54374      3.58206     12.47271         0.071744      0.177825     -0.345710
O     10.43466     17.39634     12.47271        -0.112264     -0.209035     -0.355008
O      8.50569     10.43466      3.58206         0.423458     -0.023841      0.100375
O      8.50569     10.54374     17.39634         0.447343      0.053566     -0.132780
O     12.47271     10.54374      3.58206        -0.399020      0.002965      0.087245
O     12.47271     10.43466     17.39634        -0.431719     -0.053500     -0.121942
O      3.58206      8.50569     10.43466         0.153146      0.459770     -0.046201
O     17.39634      8.50569     10.54374        -0.093334      0.441827      0.033450
O      3.58206     12.47271     10.54374         0.077278     -0.430500      0.048771
O     17.39634     12.47271     10.43466        -0.219898     -0.573086     -0.000682
O      3.58206     10.43466      8.50569         0.210501     -0.007078      0.514285
O     17.39634     10.54374      8.50569        -0.159650     -0.000617      0.473909
O      3.58206     10.54374     12.47271         0.288652      0.045793     -0.536926
O     17.39634     10.43466     12.47271        -0.214184     -0.010786     -0.573983
O     10.43466      8.50569      3.58206         0.029944      0.541866      0.266682
O     10.54374      8.50569     17.39634         0.067736      0.545415     -0.254980
O     10.54374     12.47271      3.58206        -0.000461     -0.625956      0.279743
O     10.43466     12.47271     17.39634        -0.039595     -0.585778     -0.271724
O      8.50569      3.58206     10.43466         0.539001      0.141026     -0.033900
O      8.50569     17.39634     10.54374         0.563820     -0.167767      0.043182
O     12.47271      3.58206     10.54374        -0.552350      0.175702      0.001138
O     12.47271     17.39634     10.43466        -0.516345     -0.170175     -0.019454
O     11.90042     11.90042     19.56718        -0.293981     -0.298289      0.262799
O     19.56718     19.56718     19.56718         0.301848      0.286831      0.275092
O     19.56718     11.90042     11.90042         0.307835     -0.323219     -0.253991
O     11.90042     19.56718     11.90042        -0.301259      0.307070     -0.241633
O      9.45224      1.03696      9.45224        -0.046905      0.037343     -0.082016
O      1.03696      9.45224      9.45224         0.050405     -0.053251     -0.072938
O      1.03696      1.03696      1.03696         0.062771      0.036531      0.111878
O      9.45224      9.45224      1.03696        -0.045195     -0.065466      0.107286
Zr     10.48920      2.52580     10.48920        -0.128602     -0.077614      0.011909
Zr     10.48920     18.45260     10.48920         0.116443      0.131284     -0.064405
Zr     10.48920     10.48920      2.52580        -0.028997      0.048074     -0.265156
Zr     10.48920     10.48920     18.45260        -0.010633     -0.021946      0.188097
Zr      2.52580     10.48920     10.48920        -0.100588     -0.031634     -0.083692
Zr     18.45260     10.48920     10.48920         0.160147      0.067870     -0.084687
Pd     13.24270      8.30713      7.95201        -0.027277      0.036816     -0.182808
Pd      9.11508     14.43383     11.92388         0.016762     -0.070185     -0.145595
Pd     12.23616     11.17406     10.55632        -0.057400     -0.059627     -0.079348
Pd     14.61769     10.69498     11.69664         0.129929     -0.087757      0.119688
Pd     11.11664      9.23855      6.43304         0.034623     -0.077781     -0.190143
Pd      6.87576      7.96304      8.49248         0.024057      0.054187      0.130328
Ir     10.04560     11.85451     11.85925         0.111743     -0.090247      0.017834
Ir     13.12906      8.61294     10.58205        -0.068697      0.119556      0.095343
Ir     12.20214     11.13161      7.90496         0.173468      0.024897     -0.058184
Ir      9.20966     14.20919      9.19463         0.009520      0.034777      0.121934
Ir     10.84650      9.30343     11.81472         0.306811      0.032867      0.262759
Ir      8.74841      9.78456      7.88384        -0.272333      0.155201      0.117045
Ir     13.64326     12.89136      9.10724        -0.077634      0.000544     -0.017237
Ir     11.55741     13.59085      7.88683         0.206072      0.064062     -0.021203
Ir     14.32117     10.41215      9.21382         0.122779     -0.352941     -0.142466
Ir      9.47009      7.31835     10.58745        -0.142269     -0.056301      0.069024
Ir      7.90498     12.36005      7.87530        -0.034868      0.003680      0.050193
Ir      9.41280      7.41783      8.03385         0.052669     -0.079515      0.063320
Ir     11.54967     13.67095     13.17251         0.028999      0.004767     -0.134131
Ir     11.75637      6.93968     12.02023        -0.112228     -0.149237      0.005320
Ir     10.01209     11.72646      9.20839         0.062926     -0.218346      0.054311
Ir     13.19124      8.64443     13.19104        -0.020941      0.067707      0.078495
Ir     10.94198      9.18333      9.17482         0.080815      0.133062     -0.082466
Ir     11.34642     13.72246     10.48025         0.293695      0.123391     -0.003724
Ir     13.52585     13.14350     11.89672         0.009604     -0.112804     -0.122893
Ir     12.27676     11.21505     13.19707         0.151638     -0.075771      0.016638
Ir     10.02696     11.61375      6.60382        -0.064876     -0.112499     -0.087381
Ir     11.64755      6.75446      9.49170         0.221996     -0.341536     -0.347507
Ir      7.27165      7.97299     11.89335         0.235084      0.041862      0.074383
Ir      7.88224     12.42358     10.51847        -0.017460      0.137721     -0.132107
Ir     11.00425      9.32534     14.36025         0.004675     -0.118756     -0.022308
Ir      7.84395     12.26872     13.07093        -0.160985      0.065161      0.278486
Ir      6.56663     10.55568      9.23747         0.229024      0.107557      0.510378
Ir      8.68068      9.79841     13.19366        -0.000600      0.025371     -0.048581
Ir      6.47428     10.44230     11.66125         0.155559      0.011267     -0.416202
Ir      9.23110      7.26757     13.18694         0.027296     -0.033545     -0.003352
Ir     10.00238     11.61270     14.43348        -0.145871      0.153188     -0.024825
Ir      8.68142      9.78968     10.52936        -0.305433      0.176185     -0.106836
