152
# total energy = -1060.02296550 eVH     10.35389      5.87395      7.64558        -0.269258     -0.000676      1.153976
H     10.62451     15.10445      7.64558         0.056561     -0.087137      0.929732
H     10.62451      5.87395     13.33282        -0.247455      0.085814     -0.790306
H     10.35389     15.10445     13.33282         0.105251     -0.299113     -0.900170
H      7.64558     10.35389      5.87395         0.939542     -0.118831      0.176128
H      7.64558     10.62451     15.10445         0.332608     -0.042493     -0.076581
H     13.33282     10.62451      5.87395        -0.882749      0.227604      0.204294
H     13.33282     10.35389     15.10445        -0.278676     -0.011429     -0.069447
H      5.87395      7.64558     10.35389         0.089898      0.419495     -0.008129
H     15.10445      7.64558     10.62451         0.010005      0.503596     -0.028687
H      5.87395     13.33282     10.62451        -0.019073     -0.954854      0.074271
H     15.10445     13.33282     10.35389        -0.080012     -0.320055      0.004836
H      5.87395     10.35389      7.64558         0.268177      0.122457      0.415066
H     15.10445     10.62451      7.64558        -0.124418     -0.177819      0.654507
H      5.87395     10.62451     13.33282        -0.082546      0.445785     -0.625847
H     15.10445     10.35389     13.33282         0.259848     -0.650901     -0.814915
H     10.35389      7.64558      5.87395        -0.051275      0.472265      0.325502
H     10.62451      7.64558     15.10445         0.214026      0.735567     -0.047334
H     10.62451     13.33282      5.87395         0.129424     -0.571079      0.204154
H     10.35389     13.33282     15.10445         0.037358     -0.283348     -0.138315
H      7.64558      5.87395     10.35389         0.336170      0.094368      0.021001
H      7.64558     15.10445     10.62451         0.371079     -0.115771      0.152667
H     13.33282      5.87395     10.62451        -0.318109      0.128746     -0.037526
H     13.33282     15.10445     10.35389        -0.652636     -0.133730      0.145709
H     12.45634     12.45634     19.01126         0.254619      0.270766     -0.229457
H     19.01126     19.01126     19.01126        -0.245584     -0.268558     -0.245474
H     19.01126     12.45634     12.45634        -0.251667      0.269637      0.234535
H     12.45634     19.01126     12.45634         0.291268     -0.236350      0.233584
C     10.35284      5.61067      6.59456         0.390985     -0.425921     -1.466242
C     10.62556     15.36773      6.59456        -0.154464      0.581713     -0.628419
C     10.62556      5.61067     14.38384         0.383870     -0.342491      0.846500
C     10.35284     15.36773     14.38384        -0.238093      0.218628      1.108707
C      6.59456     10.35284      5.61067        -1.380871      0.017733     -0.242682
C      6.59456     10.62556     15.36773        -0.648349      0.057526      0.388172
C     14.38384     10.62556      5.61067         1.324893     -0.184149     -0.627570
C     14.38384     10.35284     15.36773         0.373861     -0.122165      0.356794
C      5.61067      6.59456     10.35284        -0.291194     -0.640540     -0.016470
C     15.36773      6.59456     10.62556         0.424933     -0.988551      0.031964
C      5.61067     14.38384     10.62556        -0.132539      1.159830     -0.180389
C     15.36773     14.38384     10.35284         0.451563      0.644784     -0.024003
C      5.61067     10.35284      6.59456        -0.370908     -0.097372     -0.701611
C     15.36773     10.62556      6.59456         0.423435      0.125792     -0.741949
C      5.61067     10.62556     14.38384        -0.381082     -0.169804      1.213099
C     15.36773     10.35284     14.38384         0.282551      0.194428      1.504149
C     10.35284      6.59456      5.61067        -0.048681     -0.697216     -0.623747
C     10.62556      6.59456     15.36773        -0.081693     -0.812792      0.351252
C     10.62556     14.38384      5.61067        -0.461149      0.408477     -0.703809
C     10.35284     14.38384     15.36773        -0.150715      0.591971      0.413689
C      6.59456      5.61067     10.35284        -0.513415     -0.342608      0.030533
C      6.59456     15.36773     10.62556        -0.387552      0.462026      0.051367
C     14.38384      5.61067     10.62556         0.446337     -0.382978      0.004461
C     14.38384     15.36773     10.35284         1.118730      0.497056     -0.070519
C     10.40319      3.19606      7.29314         0.002251      0.643919     -0.333843
C     10.35913      4.25547      6.23373         0.006962     -0.448317      0.285587
C      0.08601      7.29314      7.29314        -0.013117     -0.357618     -0.499120
C      0.13007      6.23373      6.23373        -0.076293      0.833241      0.054367
C      0.08601      3.19606      3.19606        -0.001709      0.675942      0.271271
C      0.13007      4.25547      4.25547         0.024422     -0.265157     -0.540234
C     10.40319      7.29314      3.19606        -0.067495     -1.179645      0.559040
C     10.35913      6.23373      4.25547        -0.035651      0.370921     -0.201537
C      7.29314     10.40319      3.19606        -1.095856     -0.059326      0.184922
C      6.23373     10.35913      4.25547         0.367155      0.079862     -0.543774
C      7.29314      0.08601      7.29314        -0.410436      0.033520     -0.558057
C      6.23373      0.13007      6.23373         0.176026      0.133460      0.131728
C      3.19606      0.08601      3.19606         0.708373      0.025310      0.159433
C      4.25547      0.13007      4.25547        -0.169853     -0.055626     -0.371741
C      3.19606     10.40319      7.29314         0.382001     -0.024871     -0.863678
C      4.25547     10.35913      6.23373        -0.161623     -0.085362      0.094225
C      3.19606      7.29314     10.40319         0.602397     -0.390215      0.002329
C      4.25547      6.23373     10.35913        -0.112281      0.186039     -0.001563
C      7.29314      7.29314      0.08601        -0.404143     -0.326083     -0.015114
C      6.23373      6.23373      0.13007         0.195131      0.190796     -0.058650
C      3.19606      3.19606      0.08601         0.289447      0.479516     -0.023474
C      4.25547      4.25547      0.13007        -0.396326     -0.227609     -0.029340
C      7.29314      3.19606     10.40319        -0.281805      0.588844     -0.012933
C      6.23373      4.25547     10.35913         0.005100     -0.117498      0.021200
O     10.43466      3.58206      8.50569        -0.029883      0.101180      0.326451
O     10.54374     17.39634      8.50569         0.064819     -0.133481      0.592233
O     10.54374      3.58206     12.47271         0.027339      0.107970     -0.392011
O     10.43466     17.39634     12.47271         0.087414     -0.039498     -0.363885
O      8.50569     10.43466      3.58206         0.708492     -0.056114      0.004028
O      8.50569     10.54374     17.39634         0.451230      0.055674     -0.070425
O     12.47271     10.54374      3.58206        -0.651959      0.116547      0.205218
O     12.47271     10.43466     17.39634        -0.283172     -0.005576      0.012775
O      3.58206      8.50569     10.43466         0.043504      0.464031     -0.067308
O     17.39634      8.50569     10.54374        -0.063031      0.461859      0.055186
O      3.58206     12.47271     10.54374         0.115712     -0.585406      0.001623
O     17.39634     12.47271     10.43466        -0.167563     -0.737720     -0.060847
O      3.58206     10.43466      8.50569         0.217093     -0.062693      0.775540
O     17.39634     10.54374      8.50569        -0.116624      0.076069      0.595011
O      3.58206     10.54374     12.47271        -0.001501     -0.000755     -0.267048
O     17.39634     10.43466     12.47271         0.043369     -0.014049     -0.209615
O     10.43466      8.50569      3.58206        -0.098267      0.570601     -0.131640
O     10.54374      8.50569     17.39634         0.065175      0.504050     -0.098210
O     10.54374     12.47271      3.58206         0.105874     -0.621260      0.133140
O     10.43466     12.47271     17.39634        -0.060426     -0.631335     -0.242224
O      8.50569      3.58206     10.43466         0.400703      0.028953     -0.031429
O      8.50569     17.39634     10.54374         0.626245     -0.153133      0.050665
O     12.47271      3.58206     10.54374        -0.506144      0.126753      0.038139
O     12.47271     17.39634     10.43466        -0.622837     -0.137383      0.038293
O     11.90042     11.90042     19.56718        -0.273661     -0.308362      0.236969
O     19.56718     19.56718     19.56718         0.301361      0.318643      0.300140
O     19.56718     11.90042     11.90042         0.284756     -0.325302     -0.230001
O     11.90042     19.56718     11.90042        -0.317483      0.229563     -0.200856
O      9.45224      1.03696      9.45224        -0.085534      0.082759     -0.066114
O      1.03696      9.45224      9.45224         0.100553     -0.116878     -0.044021
O      1.03696      1.03696      1.03696         0.086229      0.058236      0.097200
O      9.45224      9.45224      1.03696        -0.063539     -0.134240      0.129439
Zr     10.48920      2.52580     10.48920         0.029470     -0.088743      0.065758
Zr     10.48920     18.45260     10.48920        -0.168876      0.263057     -0.346781
Zr     10.48920     10.48920      2.52580         0.124237      0.361925     -0.356138
Zr     10.48920     10.48920     18.45260        -0.081573     -0.193824      0.170218
Zr      2.52580     10.48920     10.48920        -0.257507      0.123566      0.221076
Zr     18.45260     10.48920     10.48920         0.232626     -0.108087      0.004969
Pd      9.39369     14.22460      9.38047        -0.003270      0.040836     -0.034911
Pd      8.62963     13.72893     12.95907        -0.005964     -0.009169      0.004760
Pd     12.02579     14.41189      8.74564         0.012395      0.006052     -0.011115
Pd     12.78062     12.79740     10.60649        -0.012184      0.035489      0.051041
Pd     12.15125      7.09605     12.58672        -0.018710      0.024249      0.042516
Pd     11.23480     14.80747     11.52072        -0.036948      0.030036     -0.028852
Pd     10.11424     12.46180     11.14403        -0.052003      0.053003     -0.084720
Pd     13.48258     12.13544      7.97242         0.007302     -0.012114      0.011043
Pd     11.48639     11.55608      6.11132         0.002798      0.003498     -0.006060
Pd      7.84669      8.60100      7.54010         0.020510     -0.041709     -0.009222
Pd      8.74722     11.71997      6.89101        -0.013702      0.015273     -0.009907
Pd     10.32359      9.45445      8.11649        -0.011219      0.021048      0.033914
Pd      8.51305     14.42050      6.86264        -0.001379      0.014663     -0.023773
Pd     12.39427      9.02672      6.56561        -0.019039      0.006051      0.011064
Pd      9.75496      9.61463      5.53465        -0.006385     -0.003259      0.016465
Pd      6.89566      9.45497     12.20008        -0.028538      0.018222      0.007388
Pd     12.20347      6.67798      7.84760        -0.000189      0.017616      0.031042
Pd      5.96512     10.47965      9.74527        -0.028133     -0.029025     -0.019203
Pd      7.58457      7.09788     13.24078        -0.001759      0.045304      0.034386
Ir     11.82972      9.68949     13.05871        -0.034064      0.026518      0.004284
Ir     13.58562      8.98356     11.42827        -0.013540      0.009060      0.017935
Ir      9.42658      8.82704     13.81443         0.004560      0.024926      0.070503
Ir     10.57765     10.91353     14.85598        -0.008286     -0.002038      0.045065
Ir      7.31079     12.04528     11.36887        -0.018362     -0.017662     -0.015474
Ir     14.70083     10.81832     10.06358        -0.022993      0.009833      0.042496
Ir     12.20059     10.45848      9.64706        -0.003973      0.050843      0.023041
Ir      8.77874     11.06639     13.04042         0.042879     -0.017451     -0.016365
Ir     10.15125      9.83320     11.24876        -0.010452      0.026442     -0.051453
Ir     13.80119     11.35607     12.38482        -0.056912      0.001323      0.023245
Ir     11.70277     12.28886     13.11687        -0.058282      0.003905      0.005842
Ir      8.55032     11.06287      9.39641        -0.041152      0.041918     -0.027920
Ir     11.58541      7.96565     10.04958        -0.000748     -0.009314      0.017896
Ir      7.23118     12.97493      8.68732         0.048618     -0.002900      0.019433
Ir      9.50227      7.00828      9.06668        -0.006607      0.019597      0.043105
Ir      8.07471      8.74349     10.10301         0.003328     -0.043400      0.001306
Ir     10.76885     12.08122      8.54148        -0.008004      0.012960     -0.008316
Ir      9.56919      7.39439     11.62700         0.011560      0.034361      0.011947
Ir     13.69683      8.66635      8.79512        -0.003278      0.036041     -0.000033
