114
# total energy = -848.60723857 eVH     10.35392      5.87463      7.64801         0.001984      0.024714      0.051810
H     10.62448     15.10377      7.64801        -0.001984     -0.024714      0.051810
H     10.62448      5.87463     13.33039        -0.001984      0.024714     -0.051810
H     10.35392     15.10377     13.33039         0.001984     -0.024714     -0.051810
H      7.64801     10.35392      5.87463         0.051810      0.001984      0.024714
H      7.64801     10.62448     15.10377         0.051810     -0.001984     -0.024714
H     13.33039     10.62448      5.87463        -0.051810     -0.001984      0.024714
H     13.33039     10.35392     15.10377        -0.051810      0.001984     -0.024714
H      5.87463      7.64801     10.35392         0.024714      0.051810      0.001984
H     15.10377      7.64801     10.62448        -0.024714      0.051810     -0.001984
H      5.87463     13.33039     10.62448         0.024714     -0.051810     -0.001984
H     15.10377     13.33039     10.35392        -0.024714     -0.051810      0.001984
H      5.87463     10.35392      7.64801         0.024714      0.001984      0.051810
H     15.10377     10.62448      7.64801        -0.024714     -0.001984      0.051810
H      5.87463     10.62448     13.33039         0.024714     -0.001984     -0.051810
H     15.10377     10.35392     13.33039        -0.024714      0.001984     -0.051810
H     10.35392      7.64801      5.87463         0.001984      0.051810      0.024714
H     10.62448      7.64801     15.10377        -0.001984      0.051810     -0.024714
H     10.62448     13.33039      5.87463        -0.001984     -0.051810      0.024714
H     10.35392     13.33039     15.10377         0.001984     -0.051810     -0.024714
H      7.64801      5.87463     10.35392         0.051810      0.024714      0.001984
H      7.64801     15.10377     10.62448         0.051810     -0.024714     -0.001984
H     13.33039      5.87463     10.62448        -0.051810      0.024714     -0.001984
H     13.33039     15.10377     10.35392        -0.051810     -0.024714      0.001984
H     12.45909     12.45909     19.00851        -0.046010     -0.046010      0.046010
H     19.00851     19.00851     19.00851         0.046010      0.046010      0.046010
H     19.00851     12.45909     12.45909         0.046010     -0.046010     -0.046010
H     12.45909     19.00851     12.45909        -0.046010      0.046010     -0.046010
C     10.35272      5.61012      6.59186        -0.008921     -0.014413      0.041301
C     10.62568     15.36828      6.59186         0.008921      0.014413      0.041301
C     10.62568      5.61012     14.38654         0.008921     -0.014413     -0.041301
C     10.35272     15.36828     14.38654        -0.008921      0.014413     -0.041301
C      6.59186     10.35272      5.61012         0.041301     -0.008921     -0.014413
C      6.59186     10.62568     15.36828         0.041301      0.008921      0.014413
C     14.38654     10.62568      5.61012        -0.041301      0.008921     -0.014413
C     14.38654     10.35272     15.36828        -0.041301     -0.008921      0.014413
C      5.61012      6.59186     10.35272        -0.014413      0.041301     -0.008921
C     15.36828      6.59186     10.62568         0.014413      0.041301      0.008921
C      5.61012     14.38654     10.62568        -0.014413     -0.041301      0.008921
C     15.36828     14.38654     10.35272         0.014413     -0.041301     -0.008921
C      5.61012     10.35272      6.59186        -0.014413     -0.008921      0.041301
C     15.36828     10.62568      6.59186         0.014413      0.008921      0.041301
C      5.61012     10.62568     14.38654        -0.014413      0.008921     -0.041301
C     15.36828     10.35272     14.38654         0.014413     -0.008921     -0.041301
C     10.35272      6.59186      5.61012        -0.008921      0.041301     -0.014413
C     10.62568      6.59186     15.36828         0.008921      0.041301      0.014413
C     10.62568     14.38654      5.61012         0.008921     -0.041301     -0.014413
C     10.35272     14.38654     15.36828        -0.008921     -0.041301      0.014413
C      6.59186      5.61012     10.35272         0.041301     -0.014413     -0.008921
C      6.59186     15.36828     10.62568         0.041301      0.014413      0.008921
C     14.38654      5.61012     10.62568        -0.041301     -0.014413      0.008921
C     14.38654     15.36828     10.35272        -0.041301      0.014413     -0.008921
C     10.40330      3.19913      7.29007         0.025197     -0.079754      0.079754
C     10.35932      4.25514      6.23406         0.015892     -0.006330      0.006330
C      0.08590      7.29007      7.29007        -0.025197      0.079754      0.079754
C      0.12988      6.23406      6.23406        -0.015892      0.006330      0.006330
C      0.08590      3.19913      3.19913        -0.025197     -0.079754     -0.079754
C      0.12988      4.25514      4.25514        -0.015892     -0.006330     -0.006330
C     10.40330      7.29007      3.19913         0.025197      0.079754     -0.079754
C     10.35932      6.23406      4.25514         0.015892      0.006330     -0.006330
C      7.29007     10.40330      3.19913         0.079754      0.025197     -0.079754
C      6.23406     10.35932      4.25514         0.006330      0.015892     -0.006330
C      7.29007      0.08590      7.29007         0.079754     -0.025197      0.079754
C      6.23406      0.12988      6.23406         0.006330     -0.015892      0.006330
C      3.19913      0.08590      3.19913        -0.079754     -0.025197     -0.079754
C      4.25514      0.12988      4.25514        -0.006330     -0.015892     -0.006330
C      3.19913     10.40330      7.29007        -0.079754      0.025197      0.079754
C      4.25514     10.35932      6.23406        -0.006330      0.015892      0.006330
C      3.19913      7.29007     10.40330        -0.079754      0.079754      0.025197
C      4.25514      6.23406     10.35932        -0.006330      0.006330      0.015892
C      7.29007      7.29007      0.08590         0.079754      0.079754     -0.025197
C      6.23406      6.23406      0.12988         0.006330      0.006330     -0.015892
C      3.19913      3.19913      0.08590        -0.079754     -0.079754     -0.025197
C      4.25514      4.25514      0.12988        -0.006330     -0.006330     -0.015892
C      7.29007      3.19913     10.40330         0.079754     -0.079754      0.025197
C      6.23406      4.25514     10.35932         0.006330     -0.006330      0.015892
O     10.43436      3.58330      8.51128        -0.029117      0.013908      0.040490
O     10.54404     17.39510      8.51128         0.029117     -0.013908      0.040490
O     10.54404      3.58330     12.46712         0.029117      0.013908     -0.040490
O     10.43436     17.39510     12.46712        -0.029117     -0.013908     -0.040490
O      8.51128     10.43436      3.58330         0.040490     -0.029117      0.013908
O      8.51128     10.54404     17.39510         0.040490      0.029117     -0.013908
O     12.46712     10.54404      3.58330        -0.040490      0.029117      0.013908
O     12.46712     10.43436     17.39510        -0.040490     -0.029117     -0.013908
O      3.58330      8.51128     10.43436         0.013908      0.040490     -0.029117
O     17.39510      8.51128     10.54404        -0.013908      0.040490      0.029117
O      3.58330     12.46712     10.54404         0.013908     -0.040490      0.029117
O     17.39510     12.46712     10.43436        -0.013908     -0.040490     -0.029117
O      3.58330     10.43436      8.51128         0.013908     -0.029117      0.040490
O     17.39510     10.54404      8.51128        -0.013908      0.029117      0.040490
O      3.58330     10.54404     12.46712         0.013908      0.029117     -0.040490
O     17.39510     10.43436     12.46712        -0.013908     -0.029117     -0.040490
O     10.43436      8.51128      3.58330        -0.029117      0.040490      0.013908
O     10.54404      8.51128     17.39510         0.029117      0.040490     -0.013908
O     10.54404     12.46712      3.58330         0.029117     -0.040490      0.013908
O     10.43436     12.46712     17.39510        -0.029117     -0.040490     -0.013908
O      8.51128      3.58330     10.43436         0.040490      0.013908     -0.029117
O      8.51128     17.39510     10.54404         0.040490     -0.013908      0.029117
O     12.46712      3.58330     10.54404        -0.040490      0.013908      0.029117
O     12.46712     17.39510     10.43436        -0.040490     -0.013908     -0.029117
O     11.89708     11.89708     19.57052         0.022998      0.022998     -0.022998
O     19.57052     19.57052     19.57052        -0.022998     -0.022998     -0.022998
O     19.57052     11.89708     11.89708        -0.022998      0.022998      0.022998
O     11.89708     19.57052     11.89708         0.022998     -0.022998      0.022998
O      9.45185      1.03735      9.45185        -0.038896      0.038896     -0.038896
O      1.03735      9.45185      9.45185         0.038896     -0.038896     -0.038896
O      1.03735      1.03735      1.03735         0.038896      0.038896      0.038896
O      9.45185      9.45185      1.03735        -0.038896     -0.038896      0.038896
Zr     10.48920      2.52686     10.48920         0.000000      0.072067      0.000000
Zr     10.48920     18.45154     10.48920         0.000000     -0.072067      0.000000
Zr     10.48920     10.48920      2.52686         0.000000      0.000000      0.072067
Zr     10.48920     10.48920     18.45154         0.000000      0.000000     -0.072067
Zr      2.52686     10.48920     10.48920         0.072067      0.000000      0.000000
Zr     18.45154     10.48920     10.48920        -0.072067      0.000000      0.000000
