152
# total energy = -1110.38657726 eVH     10.35389      5.87395      7.64558        -0.370451     -0.134172      1.108820
H     10.62451     15.10445      7.64558         0.340874      0.078969      0.929948
H     10.62451      5.87395     13.33282        -0.323034     -0.687764     -1.365367
H     10.35389     15.10445     13.33282        -0.598429      0.424355     -0.327411
H      7.64558     10.35389      5.87395         0.549515     -0.524399     -0.095025
H      7.64558     10.62451     15.10445         0.382223     -0.238363      0.045217
H     13.33282     10.62451      5.87395        -0.565789      0.639167     -0.041291
H     13.33282     10.35389     15.10445        -0.527140      0.399236      0.158760
H      5.87395      7.64558     10.35389         0.149482      0.548272      0.030727
H     15.10445      7.64558     10.62451         0.431054      0.996467      0.271369
H      5.87395     13.33282     10.62451        -0.222686     -0.495264      0.361534
H     15.10445     13.33282     10.35389         0.027736     -0.300864     -0.380375
H      5.87395     10.35389      7.64558        -0.093106     -0.391224      1.462462
H     15.10445     10.62451      7.64558         0.216127      0.494278      1.313727
H      5.87395     10.62451     13.33282        -0.208614     -0.366954     -1.197314
H     15.10445     10.35389     13.33282         0.597697      0.969291     -1.530230
H     10.35389      7.64558      5.87395        -0.565646      0.516200     -0.176420
H     10.62451      7.64558     15.10445        -0.138787      0.473888      0.170151
H     10.62451     13.33282      5.87395         0.876168     -1.350570     -0.316739
H     10.35389     13.33282     15.10445         0.240599     -0.560399     -0.099526
H      7.64558      5.87395     10.35389         0.716713      0.168841     -0.164218
H      7.64558     15.10445     10.62451         1.980919      0.762287      0.216025
H     13.33282      5.87395     10.62451        -2.674360     -0.933080     -0.491282
H     13.33282     15.10445     10.35389        -0.877468     -0.053509     -0.251214
H     12.45634     12.45634     19.01126         0.272083      0.257856     -0.227321
H     19.01126     19.01126     19.01126        -0.266764     -0.255139     -0.238622
H     19.01126     12.45634     12.45634        -0.283476      0.281299      0.185691
H     12.45634     19.01126     12.45634         0.256197     -0.250994      0.235826
C     10.35284      5.61067      6.59456         0.078389     -0.495127     -1.218397
C     10.62556     15.36773      6.59456         0.182351      0.755720     -0.813594
C     10.62556      5.61067     14.38384         0.186094     -0.304258      1.797015
C     10.35284     15.36773     14.38384         0.092457      0.383991      1.800779
C      6.59456     10.35284      5.61067        -1.134346     -0.110144     -0.879465
C      6.59456     10.62556     15.36773        -0.702557     -0.098455      0.781622
C     14.38384     10.62556      5.61067         0.853862     -0.109814     -0.997595
C     14.38384     10.35284     15.36773         1.191394      0.167526      1.103779
C      5.61067      6.59456     10.35284        -0.668495     -0.886177     -0.184429
C     15.36773      6.59456     10.62556         1.990023     -0.291120     -0.185985
C      5.61067     14.38384     10.62556        -1.569639     -0.008828     -0.137758
C     15.36773     14.38384     10.35284         0.485709      0.081889      0.006166
C      5.61067     10.35284      6.59456        -0.276194      0.202115     -1.347462
C     15.36773     10.62556      6.59456         0.288875     -0.250300     -0.991561
C      5.61067     10.62556     14.38384        -0.255377      0.436119      1.458858
C     15.36773     10.35284     14.38384         0.027959     -0.463501      1.938192
C     10.35284      6.59456      5.61067        -0.169789     -0.865758     -0.689924
C     10.62556      6.59456     15.36773        -0.115246     -0.739365      1.052450
C     10.62556     14.38384      5.61067        -0.503269      1.999769     -0.766440
C     10.35284     14.38384     15.36773        -0.268566      1.388325      0.495963
C      6.59456      5.61067     10.35284        -0.978043     -0.410741      0.089671
C      6.59456     15.36773     10.62556        -1.276488      0.372559     -0.332140
C     14.38384      5.61067     10.62556         1.279619     -1.285035      0.195500
C     14.38384     15.36773     10.35284         0.452136      0.312425      0.080118
C     10.40319      3.19606      7.29314         0.001287      0.307069     -0.106681
C     10.35913      4.25547      6.23373         0.140776     -0.554504      0.015935
C      0.08601      7.29314      7.29314        -0.053029     -0.290162     -0.423039
C      0.13007      6.23373      6.23373        -0.121654      0.687585      0.024032
C      0.08601      3.19606      3.19606        -0.106144      1.648065      0.169117
C      0.13007      4.25547      4.25547        -0.089810     -0.397928     -1.220688
C     10.40319      7.29314      3.19606         0.015793     -0.439095      0.123013
C     10.35913      6.23373      4.25547         0.261976      0.084387     -0.522003
C      7.29314     10.40319      3.19606        -1.681868      0.008949      0.323960
C      6.23373     10.35913      4.25547         0.662242      0.078394     -0.615044
C      7.29314      0.08601      7.29314        -0.408689     -0.013739     -0.312136
C      6.23373      0.13007      6.23373         0.704208     -0.056489      0.255446
C      3.19606      0.08601      3.19606         0.658045     -0.017206      0.182480
C      4.25547      0.13007      4.25547        -0.366467     -0.080654     -0.550411
C      3.19606     10.40319      7.29314         0.359742      0.020825     -0.317190
C      4.25547     10.35913      6.23373        -0.732658      0.072231      0.364153
C      3.19606      7.29314     10.40319         0.289399     -0.207065     -0.006713
C      4.25547      6.23373     10.35913         0.043100      0.639331      0.091427
C      7.29314      7.29314      0.08601        -0.718161     -0.610501     -0.023939
C      6.23373      6.23373      0.13007         0.892786      1.126396     -0.068514
C      3.19606      3.19606      0.08601         0.820341      0.510869      0.005416
C      4.25547      4.25547      0.13007        -0.329896     -1.756823     -0.129209
C      7.29314      3.19606     10.40319        -0.327398      0.273050     -0.004236
C      6.23373      4.25547     10.35913         0.506416     -0.024840      0.229393
O     10.43466      3.58206      8.50569        -0.048360      0.184660      0.258347
O     10.54374     17.39634      8.50569         0.042264     -0.234522      0.485531
O     10.54374      3.58206     12.47271         0.083684     -0.069564     -0.029903
O     10.43466     17.39634     12.47271        -0.023102     -0.141853     -0.272352
O      8.50569     10.43466      3.58206         0.989026      0.187361      0.381831
O      8.50569     10.54374     17.39634         0.576627      0.084629     -0.229657
O     12.47271     10.54374      3.58206        -0.418100     -0.039859      0.184353
O     12.47271     10.43466     17.39634        -0.511532     -0.068835     -0.194819
O      3.58206      8.50569     10.43466         0.183896      0.427253     -0.029534
O     17.39634      8.50569     10.54374        -0.230777      0.714468      0.045087
O      3.58206     12.47271     10.54374         0.161856     -0.680218      0.025503
O     17.39634     12.47271     10.43466        -0.186135     -0.477351     -0.011251
O      3.58206     10.43466      8.50569         0.227224     -0.060789      0.403408
O     17.39634     10.54374      8.50569        -0.171350      0.036972      0.410942
O      3.58206     10.54374     12.47271         0.148096      0.021069     -0.304643
O     17.39634     10.43466     12.47271         0.076220     -0.050848     -0.076545
O     10.43466      8.50569      3.58206         0.002575      0.274039      0.182426
O     10.54374      8.50569     17.39634         0.070230      0.432179     -0.177174
O     10.54374     12.47271      3.58206        -0.221933     -0.972883      0.337610
O     10.43466     12.47271     17.39634        -0.083225     -0.450545     -0.245474
O      8.50569      3.58206     10.43466         0.491784      0.196867     -0.011154
O      8.50569     17.39634     10.54374         0.665215     -0.201234      0.021806
O     12.47271      3.58206     10.54374        -0.745208      0.279166      0.036796
O     12.47271     17.39634     10.43466        -0.434695     -0.204553     -0.044090
O     11.90042     11.90042     19.56718        -0.346782     -0.307601      0.259743
O     19.56718     19.56718     19.56718         0.324683      0.311775      0.283061
O     19.56718     11.90042     11.90042         0.275716     -0.275228     -0.139626
O     11.90042     19.56718     11.90042        -0.305500      0.284455     -0.233715
O      9.45224      1.03696      9.45224        -0.060107      0.072390     -0.046636
O      1.03696      9.45224      9.45224         0.035856     -0.074644     -0.071327
O      1.03696      1.03696      1.03696         0.061297      0.145681      0.098316
O      9.45224      9.45224      1.03696        -0.139244     -0.095095      0.098495
Zr     10.48920      2.52580     10.48920         0.159934     -0.170107     -0.164950
Zr     10.48920     18.45260     10.48920        -0.100233      0.183913     -0.048607
Zr     10.48920     10.48920      2.52580         0.338165     -0.309755     -0.201348
Zr     10.48920     10.48920     18.45260         0.011355     -0.088223      0.203015
Zr      2.52580     10.48920     10.48920        -0.069822      0.176484     -0.052020
Zr     18.45260     10.48920     10.48920         0.144014     -0.130445     -0.250342
Ir     12.04191     12.48468     10.45800        -0.013518      0.001014     -0.011845
Ir     11.20871      7.41484     10.26782        -0.005733      0.004800      0.004850
Ir      8.85006      7.35640     11.54258         0.016376      0.007054     -0.017189
Ir      7.47267     11.64961      7.66062        -0.009475      0.001354     -0.005002
Ir     11.59371     12.08009      7.11838        -0.003881     -0.010944     -0.010751
Ir     13.77480      8.99262      7.53669         0.020944      0.005930     -0.024577
Ir     12.47572     13.95419      8.41311        -0.000767      0.008007     -0.000789
Ir      9.73342     11.25797      5.55015         0.003612     -0.003059     -0.007739
Ir      9.07671     13.45372      7.07654        -0.004696     -0.010451      0.008190
Ir      9.27246      9.66791      7.51072        -0.005806     -0.006251     -0.012411
Ir     13.28587      7.03892     11.95635        -0.001179     -0.005044     -0.000053
Ir     13.61828      7.04068      9.11230         0.028993     -0.009300      0.003709
Ir     11.04510      7.59398     12.82029        -0.003117      0.009959     -0.031621
Ir     13.60229     11.56524      8.75325         0.003481      0.003011     -0.001863
Ir     11.50385      9.63389      6.22701        -0.002989     -0.012001     -0.008533
Ir      7.15729      9.15604      8.92793         0.011743     -0.009803     -0.000379
Ir     14.05898     11.43790     11.65279         0.014609     -0.008383     -0.001379
Ir     11.65868      9.84038      8.87344        -0.007734     -0.009011      0.001418
Ir      9.43969      9.50595     10.23432        -0.002418     -0.037292     -0.001797
Ir     13.87381      9.41079     10.17563         0.012827      0.000955      0.005171
Ir     13.82658      9.16259     12.89128         0.007469      0.009229     -0.008956
Ir     11.69707      9.76164     11.55019         0.006704     -0.017015      0.001852
Ir      9.91229     11.73440      8.96795         0.006690      0.022548     -0.004736
Ir      9.09450      7.43199      8.79311         0.013754      0.014419     -0.009411
Ir     11.60641      7.54354      7.74426         0.009722     -0.022481     -0.035457
Ir      9.25619      9.47446     13.01003         0.003544     -0.013097     -0.005280
Ir      7.51012     13.90232      8.99529         0.000421     -0.003808     -0.000227
Ir     10.87096     14.10477     11.95156        -0.011428     -0.003007     -0.003211
Ir     10.11175     14.15207      9.51902        -0.002954     -0.020529     -0.001089
Ir      9.79151     11.68406     11.72624        -0.014978      0.008902     -0.002115
Ir      7.58814     11.56686     10.21130        -0.001029     -0.006096      0.000794
Ir      8.34706     13.74052     11.58490         0.003793     -0.014829      0.000334
Ir      7.52530     11.55259     12.82646         0.002472     -0.008235     -0.006616
Ir      9.77352     11.60324     14.34443         0.009731     -0.012897     -0.004823
Ir     13.47073     13.88440     12.18888        -0.002734      0.006054     -0.002506
Ir     11.98991     12.04786     13.07993        -0.004407     -0.014541      0.020374
Ir     11.58104      9.79187     14.19164         0.003091     -0.002582     -0.021219
Ir      7.15445      9.35487     11.48942         0.012426     -0.009461     -0.014058
