152
# total energy = -1022.28931395 eVH     10.35389      5.87395      7.64558         0.398841     -0.077623      1.094296
H     10.62451     15.10445      7.64558         0.042934     -0.103934      0.597409
H     10.62451      5.87395     13.33282         0.126392      0.111121     -0.647157
H     10.35389     15.10445     13.33282        -0.264550     -0.062001     -0.555747
H      7.64558     10.35389      5.87395         0.429176     -0.047944      0.170712
H      7.64558     10.62451     15.10445         0.631383     -0.101362     -0.083466
H     13.33282     10.62451      5.87395        -1.037488     -0.444916     -0.115949
H     13.33282     10.35389     15.10445        -0.467670     -0.049904     -0.048021
H      5.87395      7.64558     10.35389         0.037539      1.254867     -0.115473
H     15.10445      7.64558     10.62451        -0.162238      0.389740     -0.074404
H      5.87395     13.33282     10.62451         0.145067     -0.385154     -0.064208
H     15.10445     13.33282     10.35389        -0.077162     -1.025859     -0.335121
H      5.87395     10.35389      7.64558         0.115172     -0.011196      0.390415
H     15.10445     10.62451      7.64558         0.060256     -0.055589      0.894589
H      5.87395     10.62451     13.33282         0.254122     -0.069732     -0.426899
H     15.10445     10.35389     13.33282        -0.189959      0.073303     -0.604099
H     10.35389      7.64558      5.87395         0.184162      0.961321      0.005180
H     10.62451      7.64558     15.10445        -0.035902      0.783922     -0.078153
H     10.62451     13.33282      5.87395         0.425297     -0.457719      0.212066
H     10.35389     13.33282     15.10445        -0.148918     -0.964019     -0.121867
H      7.64558      5.87395     10.35389         0.443937      0.084893     -0.138669
H      7.64558     15.10445     10.62451         0.904180     -0.201915      0.145402
H     13.33282      5.87395     10.62451        -0.433851      0.197745     -0.059484
H     13.33282     15.10445     10.35389        -1.017019     -0.063192      0.267881
H     12.45634     12.45634     19.01126         0.273909      0.258441     -0.217739
H     19.01126     19.01126     19.01126        -0.251252     -0.236109     -0.261227
H     19.01126     12.45634     12.45634        -0.244155      0.274898      0.233570
H     12.45634     19.01126     12.45634         0.205278     -0.285149      0.259066
C     10.35284      5.61067      6.59456        -0.043799     -0.502413     -0.843765
C     10.62556     15.36773      6.59456         0.038217      0.344047     -0.853077
C     10.62556      5.61067     14.38384        -0.011973     -0.290022      0.751066
C     10.35284     15.36773     14.38384         0.232903      0.672415      0.045279
C      6.59456     10.35284      5.61067        -0.697147     -0.030027     -0.279686
C      6.59456     10.62556     15.36773        -0.937946      0.108275      0.426328
C     14.38384     10.62556      5.61067         1.120942      0.272695     -0.296133
C     14.38384     10.35284     15.36773         0.752383     -0.108597      0.432122
C      5.61067      6.59456     10.35284        -0.351819     -0.909657      0.239038
C     15.36773      6.59456     10.62556         0.182569     -0.468076      0.039182
C      5.61067     14.38384     10.62556        -0.236136      0.380082     -0.008029
C     15.36773     14.38384     10.35284         0.310972      0.464857      0.259817
C      5.61067     10.35284      6.59456        -0.347691      0.018747     -0.785641
C     15.36773     10.62556      6.59456         0.538028     -0.156637     -1.266975
C      5.61067     10.62556     14.38384        -0.494225      0.016793      1.119468
C     15.36773     10.35284     14.38384         0.546485     -0.205192      1.373333
C     10.35284      6.59456      5.61067         0.006479     -1.209973     -0.733117
C     10.62556      6.59456     15.36773         0.073535     -1.027628      0.402384
C     10.62556     14.38384      5.61067        -0.065813      1.372452     -0.699673
C     10.35284     14.38384     15.36773         0.051565      0.681281      0.534028
C      6.59456      5.61067     10.35284         0.042095     -0.868116      0.140729
C      6.59456     15.36773     10.62556        -1.684732      0.483780      0.087279
C     14.38384      5.61067     10.62556         0.560162     -0.223324      0.011525
C     14.38384     15.36773     10.35284         0.580781      0.495238     -0.263935
C     10.40319      3.19606      7.29314         0.021092      0.991597     -0.231365
C     10.35913      4.25547      6.23373        -0.013831     -0.286092      0.814924
C      0.08601      7.29314      7.29314        -0.010967     -0.224981     -0.470893
C      0.13007      6.23373      6.23373        -0.014924      0.176141      0.168562
C      0.08601      3.19606      3.19606        -0.024287      0.708574      0.142175
C      0.13007      4.25547      4.25547        -0.111409     -0.201461     -0.142501
C     10.40319      7.29314      3.19606        -0.003978     -0.629416      0.465621
C     10.35913      6.23373      4.25547        -0.001904      0.593739     -0.297586
C      7.29314     10.40319      3.19606        -0.417160      0.018566      0.943858
C      6.23373     10.35913      4.25547         0.258041     -0.017438     -0.200404
C      7.29314      0.08601      7.29314        -0.299582     -0.054299     -0.264335
C      6.23373      0.13007      6.23373         0.333171     -0.107787      0.234157
C      3.19606      0.08601      3.19606         0.304617     -0.062653      1.382331
C      4.25547      0.13007      4.25547        -0.246070     -0.015940     -0.415771
C      3.19606     10.40319      7.29314         0.767605      0.020185     -0.250854
C      4.25547     10.35913      6.23373        -0.113443      0.035919      0.122685
C      3.19606      7.29314     10.40319         0.507512     -1.238325      0.040954
C      4.25547      6.23373     10.35913        -0.778529      0.681620      0.028952
C      7.29314      7.29314      0.08601        -0.659720     -0.218489     -0.020101
C      6.23373      6.23373      0.13007         0.182591      0.245794     -0.005704
C      3.19606      3.19606      0.08601         0.276244      0.262831     -0.015349
C      4.25547      4.25547      0.13007        -0.052056     -0.041336      0.003558
C      7.29314      3.19606     10.40319        -0.324206      0.693371      0.033564
C      6.23373      4.25547     10.35913         0.657130     -0.242307      0.029794
O     10.43466      3.58206      8.50569        -0.053736      0.028194      0.278761
O     10.54374     17.39634      8.50569        -0.024837     -0.201306      0.621120
O     10.54374      3.58206     12.47271         0.071518      0.047560     -0.282255
O     10.43466     17.39634     12.47271        -0.025926     -0.130654     -0.548206
O      8.50569     10.43466      3.58206         0.383815     -0.004787     -0.016476
O      8.50569     10.54374     17.39634         0.456466      0.057629     -0.138465
O     12.47271     10.54374      3.58206        -0.195987      0.070843     -0.125809
O     12.47271     10.43466     17.39634        -0.858519      0.028483     -0.210099
O      3.58206      8.50569     10.43466         0.033231      0.885466      0.041834
O     17.39634      8.50569     10.54374        -0.023149      0.374140      0.079842
O      3.58206     12.47271     10.54374         0.053989     -0.433731      0.059828
O     17.39634     12.47271     10.43466        -0.153041     -0.706994      0.005239
O      3.58206     10.43466      8.50569        -0.053835     -0.063064      0.221077
O     17.39634     10.54374      8.50569        -0.143400      0.050575      0.449297
O      3.58206     10.54374     12.47271        -0.070212     -0.057629     -0.889194
O     17.39634     10.43466     12.47271        -0.202209      0.048677     -0.798321
O     10.43466      8.50569      3.58206         0.020237      0.664500      0.201791
O     10.54374      8.50569     17.39634         0.058103      0.385763     -0.066198
O     10.54374     12.47271      3.58206        -0.058761     -0.732277      0.248845
O     10.43466     12.47271     17.39634         0.064807     -0.838808     -0.275548
O      8.50569      3.58206     10.43466         0.491963      0.092070     -0.039632
O      8.50569     17.39634     10.54374         0.665694     -0.227505     -0.060519
O     12.47271      3.58206     10.54374        -0.528561      0.159417      0.037490
O     12.47271     17.39634     10.43466        -0.459689     -0.020171     -0.050653
O     11.90042     11.90042     19.56718        -0.311898     -0.311271      0.255109
O     19.56718     19.56718     19.56718         0.292434      0.276341      0.318322
O     19.56718     11.90042     11.90042         0.278644     -0.331599     -0.229274
O     11.90042     19.56718     11.90042        -0.220903      0.296073     -0.245487
O      9.45224      1.03696      9.45224        -0.071059      0.058596     -0.069499
O      1.03696      9.45224      9.45224         0.067204     -0.142723     -0.055598
O      1.03696      1.03696      1.03696         0.042211      0.030753      0.189812
O      9.45224      9.45224      1.03696        -0.037816     -0.083363      0.133976
Zr     10.48920      2.52580     10.48920         0.000958     -0.064618     -0.024318
Zr     10.48920     18.45260     10.48920         0.033987      0.284199     -0.044294
Zr     10.48920     10.48920      2.52580        -0.044748     -0.045894     -0.360717
Zr     10.48920     10.48920     18.45260        -0.155894     -0.205714      0.304887
Zr      2.52580     10.48920     10.48920        -0.328751      0.358803     -0.486900
Zr     18.45260     10.48920     10.48920         0.222824      0.043368     -0.312397
Pd      9.01848     10.26748     13.52935         0.001638     -0.013369     -0.033569
Pd     10.62161      9.72476     11.36017         0.024450      0.011924     -0.079196
Pd     13.76306      8.50878     12.86852         0.001646      0.016818     -0.057622
Pd     11.02842     11.16145     15.11661        -0.012396     -0.008875     -0.012089
Pd     12.79677     11.11407     13.03073         0.008006      0.020879      0.022010
Pd     15.01160     10.73631     11.39625         0.030316      0.043363      0.008678
Pd      6.62302      7.39429     12.33240         0.058438      0.005166     -0.031620
Pd      9.37194      7.43393     10.25151        -0.047951     -0.057675     -0.008048
Pd      9.19896      7.63025     12.94760         0.048049      0.006011     -0.019136
Pd     11.71582      7.26398     11.68949         0.001658      0.013248     -0.050689
Pd     11.66435      7.65986      8.97028        -0.103464      0.119775      0.005074
Pd      7.19982     11.84274     12.09802        -0.005917     -0.008556     -0.028387
Pd      8.97666     14.67069      9.32795        -0.020316     -0.024839      0.008425
Pd      8.47475     12.76910     14.32946        -0.015998     -0.020646      0.035492
Pd     13.12540     13.98418      8.68620         0.051127     -0.056762      0.032625
Pd     10.74403     13.00013      8.44653        -0.002329      0.024848     -0.001388
Pd     14.15181     11.51499      9.05036        -0.114231     -0.129889     -0.000494
Pd      8.68444     14.08256     12.02668        -0.017052      0.026075      0.040044
Pd     12.22482     13.74738     13.95606        -0.000154     -0.023397      0.010543
Pd     11.21898     14.31127     11.01057        -0.039999      0.042486      0.013405
Pd     14.01502     13.36969     12.09374         0.038755      0.035670      0.025785
Pd     12.23015     11.98280     10.62478        -0.022383      0.045210      0.035927
Pd     12.44219     11.81525      6.97582         0.035962      0.089898     -0.077812
Pd     13.58416      9.13185      7.93203        -0.005804     -0.121780     -0.074624
Pd      6.98607      8.38521      8.98468         0.004259     -0.015790      0.007366
Pd      5.50299      9.86510     11.35803         0.020734      0.022370     -0.007323
Pd      8.81162      9.98140      7.92533         0.030488     -0.039928      0.069321
Pd      9.13823      7.45518      7.61368        -0.018607     -0.030892     -0.015154
Pd      9.38037     11.95935     10.45669        -0.009486      0.021661     -0.013630
Pd     11.19145     10.31086      8.88690         0.107882      0.115511     -0.031464
Pd     11.07875      9.35454      6.48948         0.010472      0.011961     -0.038810
Pd      9.67098     11.77580      6.21804         0.019530     -0.028835      0.021082
Ir     11.35988      9.04148     13.66155         0.012179      0.035783     -0.061640
Ir     13.04177      9.34385     10.49835         0.010522      0.046406     -0.066314
Ir     10.52866     12.31205     12.68889        -0.003448      0.007185      0.024297
Ir      7.04592     10.95904      9.62370        -0.050785     -0.041070      0.034832
Ir      8.15644     12.49447      8.22065         0.023435      0.011064     -0.031872
Ir      8.06827      9.35025     11.24440        -0.013630      0.063904     -0.022119
