152
# total energy = -1004.32347729 eVH     10.35389      5.87395      7.64558        -0.160831      0.196082      0.647817
H     10.62451     15.10445      7.64558        -0.266649     -0.136229      0.651214
H     10.62451      5.87395     13.33282         0.451710      0.041701     -0.953035
H     10.35389     15.10445     13.33282         0.065655     -0.187006     -0.536815
H      7.64558     10.35389      5.87395         0.394142      0.062851      0.122574
H      7.64558     10.62451     15.10445         0.773632      0.553115     -0.021678
H     13.33282     10.62451      5.87395        -0.451097     -0.003993      0.245506
H     13.33282     10.35389     15.10445        -0.771877     -0.211830      0.026210
H      5.87395      7.64558     10.35389         0.103033      1.915613      0.208146
H     15.10445      7.64558     10.62451        -0.088912      0.504064      0.216782
H      5.87395     13.33282     10.62451         0.210574     -0.649901     -0.020027
H     15.10445     13.33282     10.35389         0.228288     -1.440534     -0.370202
H      5.87395     10.35389      7.64558         0.102007      0.051063      0.545761
H     15.10445     10.62451      7.64558        -0.160843      1.000523      1.411084
H      5.87395     10.62451     13.33282        -0.064319      0.484070     -1.307044
H     15.10445     10.35389     13.33282         0.125585     -0.194101     -0.770545
H     10.35389      7.64558      5.87395         0.313837      1.328230      0.162642
H     10.62451      7.64558     15.10445         0.563344      0.810388     -0.085070
H     10.62451     13.33282      5.87395        -0.610229     -0.811841      0.225677
H     10.35389     13.33282     15.10445        -0.187920     -0.529122     -0.321594
H      7.64558      5.87395     10.35389         1.169358     -0.236791     -0.093199
H      7.64558     15.10445     10.62451         0.790585     -0.204832     -0.026810
H     13.33282      5.87395     10.62451        -0.602001      0.113698      0.645173
H     13.33282     15.10445     10.35389        -0.440426     -0.021458     -0.167817
H     12.45634     12.45634     19.01126         0.273114      0.245851     -0.232922
H     19.01126     19.01126     19.01126        -0.266047     -0.271279     -0.216863
H     19.01126     12.45634     12.45634        -0.276069      0.252822      0.231583
H     12.45634     19.01126     12.45634         0.252350     -0.281202      0.230052
C     10.35284      5.61067      6.59456        -0.142517     -0.819104     -0.543968
C     10.62556     15.36773      6.59456         0.103699      0.351452     -0.212408
C     10.62556      5.61067     14.38384        -0.069590     -0.566207      0.623582
C     10.35284     15.36773     14.38384        -0.004240      0.247370      0.526927
C      6.59456     10.35284      5.61067        -0.604547      0.075825     -0.413436
C      6.59456     10.62556     15.36773        -0.989970      0.229086      0.721247
C     14.38384     10.62556      5.61067         0.771099      0.040291     -0.934362
C     14.38384     10.35284     15.36773         0.931991     -0.114463      0.432164
C      5.61067      6.59456     10.35284        -0.909603     -1.093225     -0.407802
C     15.36773      6.59456     10.62556         0.678040      0.052271     -0.259975
C      5.61067     14.38384     10.62556        -0.237523      0.747279      0.018156
C     15.36773     14.38384     10.35284         0.298250      1.397829     -0.010139
C      5.61067     10.35284      6.59456        -0.275246      0.022781     -0.716948
C     15.36773     10.62556      6.59456         0.424926     -0.359288     -1.048615
C      5.61067     10.62556     14.38384        -0.349279     -0.007817      1.105604
C     15.36773     10.35284     14.38384         0.407190     -0.052667      0.859429
C     10.35284      6.59456      5.61067        -0.058509     -1.012400     -0.376653
C     10.62556      6.59456     15.36773         0.059039     -0.699896      0.534649
C     10.62556     14.38384      5.61067         0.142540      1.014006     -0.425173
C     10.35284     14.38384     15.36773        -0.019731      0.924763      0.468842
C      6.59456      5.61067     10.35284        -0.637857     -1.308420      0.101067
C      6.59456     15.36773     10.62556        -0.912803      0.168559      0.103102
C     14.38384      5.61067     10.62556        -0.094026     -0.518437     -0.343624
C     14.38384     15.36773     10.35284         0.166535      0.669850     -0.068388
C     10.40319      3.19606      7.29314         0.005838      0.747723     -0.695488
C     10.35913      4.25547      6.23373         0.014907     -0.535170      0.107611
C      0.08601      7.29314      7.29314        -0.019697     -1.015284     -0.259452
C      0.13007      6.23373      6.23373        -0.051312      0.412902      0.391539
C      0.08601      3.19606      3.19606         0.047816      1.217924      0.198514
C      0.13007      4.25547      4.25547        -0.009522     -0.392566     -0.457122
C     10.40319      7.29314      3.19606        -0.009303     -0.553292      0.221401
C     10.35913      6.23373      4.25547        -0.018689      0.126723     -0.690221
C      7.29314     10.40319      3.19606        -0.380363      0.024161      0.297624
C      6.23373     10.35913      4.25547         0.217970      0.076370     -0.102461
C      7.29314      0.08601      7.29314        -1.120927     -0.081240     -0.381082
C      6.23373      0.13007      6.23373         0.639746     -0.182827      0.365344
C      3.19606      0.08601      3.19606         1.142264     -0.019198      0.300691
C      4.25547      0.13007      4.25547        -0.574718     -0.155399     -0.209688
C      3.19606     10.40319      7.29314         0.553930      0.031983     -0.252962
C      4.25547     10.35913      6.23373        -0.223978      0.086116      0.210672
C      3.19606      7.29314     10.40319         0.315677     -0.594489      0.038945
C      4.25547      6.23373     10.35913        -1.072959      0.043385      0.179138
C      7.29314      7.29314      0.08601        -0.492046     -0.462706     -0.022783
C      6.23373      6.23373      0.13007         0.507867      0.306418      0.027619
C      3.19606      3.19606      0.08601         0.614261      0.435294     -0.022842
C      4.25547      4.25547      0.13007        -0.087597     -0.756324     -0.103448
C      7.29314      3.19606     10.40319        -0.413769      0.489081      0.048419
C      6.23373      4.25547     10.35913         0.584006     -0.757722      0.185974
O     10.43466      3.58206      8.50569         0.042121      0.163431      0.600186
O     10.54374     17.39634      8.50569         0.049057     -0.031406      0.305355
O     10.54374      3.58206     12.47271         0.001723     -0.057622     -0.202035
O     10.43466     17.39634     12.47271        -0.037937     -0.113470     -0.405303
O      8.50569     10.43466      3.58206         0.526728     -0.039752      0.126175
O      8.50569     10.54374     17.39634         0.846990     -0.078190     -0.166048
O     12.47271     10.54374      3.58206        -0.865871      0.135890      0.130049
O     12.47271     10.43466     17.39634        -0.619654      0.030337     -0.174893
O      3.58206      8.50569     10.43466         0.173986      0.691082     -0.023540
O     17.39634      8.50569     10.54374        -0.139616      0.645643      0.022184
O      3.58206     12.47271     10.54374         0.107251     -0.549656      0.056326
O     17.39634     12.47271     10.43466        -0.171211     -0.588077     -0.050831
O      3.58206     10.43466      8.50569         0.086510     -0.042020      0.392878
O     17.39634     10.54374      8.50569         0.051108      0.097074      0.346506
O      3.58206     10.54374     12.47271        -0.013517      0.035306     -0.248384
O     17.39634     10.43466     12.47271        -0.131592     -0.029728     -0.474326
O     10.43466      8.50569      3.58206        -0.033132      0.621234      0.178202
O     10.54374      8.50569     17.39634        -0.093514      0.815194     -0.183369
O     10.54374     12.47271      3.58206         0.110450     -0.961826      0.170468
O     10.43466     12.47271     17.39634         0.041613     -0.592837     -0.118041
O      8.50569      3.58206     10.43466         0.583401      0.148238     -0.051663
O      8.50569     17.39634     10.54374         0.588108     -0.163170      0.013915
O     12.47271      3.58206     10.54374        -0.730050      0.142851      0.009695
O     12.47271     17.39634     10.43466        -0.505026     -0.119502     -0.031217
O     11.90042     11.90042     19.56718        -0.327380     -0.270458      0.243594
O     19.56718     19.56718     19.56718         0.296068      0.322265      0.208863
O     19.56718     11.90042     11.90042         0.346008     -0.277931     -0.249287
O     11.90042     19.56718     11.90042        -0.280007      0.352674     -0.232361
O      9.45224      1.03696      9.45224        -0.029153      0.097428     -0.132426
O      1.03696      9.45224      9.45224         0.057254     -0.022260     -0.121199
O      1.03696      1.03696      1.03696         0.062634      0.099340      0.097712
O      9.45224      9.45224      1.03696        -0.040944     -0.028796      0.085811
Zr     10.48920      2.52580     10.48920        -0.082104     -0.238099      0.134134
Zr     10.48920     18.45260     10.48920         0.033902      0.058825      0.101954
Zr     10.48920     10.48920      2.52580        -0.319107     -0.294380     -0.384949
Zr     10.48920     10.48920     18.45260         0.179229     -0.019569      0.390808
Zr      2.52580     10.48920     10.48920        -0.143763     -0.033701     -0.069961
Zr     18.45260     10.48920     10.48920         0.136635     -0.038203      0.133707
Pd     12.77728      8.35372      9.79341         0.025102      0.063399     -0.035838
Pd      6.64804      9.58301     10.43019        -0.042861      0.010098      0.035579
Pd      6.92041     11.75174     11.86973         0.016442     -0.059238     -0.013377
Pd     12.28618     13.50500      7.22583         0.007097      0.005963      0.003849
Pd     12.09442      7.92884      7.15800         0.015047     -0.007634      0.006504
Pd      8.50490      7.31978      6.89538        -0.009682      0.005561      0.013318
Pd     11.46630     11.48109      5.66083        -0.007522     -0.009680     -0.031346
Pd     14.49513      8.90217      7.83570        -0.012961     -0.048320     -0.002882
Pd      9.82445     11.79839      7.92608         0.020168     -0.011459     -0.033033
Pd      7.08021      7.14803     11.98308         0.004024      0.005495     -0.009583
Pd      6.45417      7.55359      8.49719        -0.012335      0.010634     -0.080149
Pd      7.31816      9.25941     13.44052        -0.055306      0.065781      0.069643
Pd     11.42813      6.14829      9.20874        -0.032815     -0.002365      0.021099
Pd      9.95847      9.55740      6.41296        -0.006701      0.006658      0.009631
Pd      9.10832     13.98416      9.37344        -0.008082     -0.002521     -0.014569
Pd     10.92565      7.26044     11.52723         0.008436      0.020355      0.012344
Pd     10.36367      9.09021      9.10645         0.061742     -0.031503      0.046589
Pd      9.36984     11.52569     10.54158        -0.015312     -0.013572     -0.007078
Pd      8.91679      7.04885      9.58225        -0.028485      0.038049      0.014273
Pd      9.09956      7.32364     13.62505         0.039852     -0.024671     -0.030114
Pd      9.00726      9.09318     11.41262        -0.070759      0.034310     -0.084452
Pd     12.26768     10.60946      8.03547         0.011962     -0.052313      0.011819
Pd      7.18105     12.00649      9.16337        -0.037141      0.005262     -0.005059
Pd      8.06089      9.69320      8.23450        -0.019580      0.006014     -0.002023
Pd     14.04266      6.38377      8.50458         0.002112     -0.032261     -0.003061
Pd     13.31481      8.45621     12.32104        -0.010173     -0.033346      0.035676
Pd      9.12009     11.37419     13.25235        -0.018313     -0.036884      0.032361
Pd     14.01180     12.37571      8.82867         0.027493     -0.069260      0.029727
Pd     13.17646     11.05220     13.09687         0.005112     -0.021524     -0.046034
Pd     14.42825     10.34211     10.53846        -0.013924     -0.000560      0.040768
Pd     11.80930     10.61283     10.80621         0.042635     -0.013632      0.022361
Pd     11.54646     13.07920      9.70703         0.004318      0.007439      0.023062
Pd     13.64975     12.97995     11.48320         0.035912     -0.013111      0.011363
Pd     11.18700     12.75702     12.35222        -0.020557      0.007848      0.013631
Pd     11.24859     11.53861     14.85090         0.013604      0.026146     -0.004870
Pd     11.01119      9.44977     13.11167         0.023303      0.024695     -0.000283
Pd      9.46707      9.55595     15.27177        -0.020703      0.007256     -0.023511
Pd      8.77746     13.77457     12.03263         0.004388      0.005482     -0.010846
