26
# total energy = -177.59076920 eVH      0.05918      6.30207      7.50000        -0.016498      0.002961     -0.000000
H      2.99775      1.79007      7.50000        -0.011214     -0.015073     -0.000000
H      5.48087      5.39758      7.50000        -0.017303      0.008678     -0.000000
H      8.41253     -2.58843      7.50000         0.016498     -0.002961     -0.000000
H      5.47396      1.92358      7.50000         0.011214      0.015073     -0.000000
H      2.99084     -1.68393      7.50000         0.017303     -0.008678     -0.000000
C      7.53646      2.58880      7.50000        -0.005478      0.013201      0.000000
C      1.42842     -0.24818      7.50000         0.013267      0.004656      0.000000
C      7.97837     -4.69688      7.50000        -0.022278      0.000816     -0.000000
C      0.93525      1.12484      7.50000         0.005478     -0.013201      0.000000
C      7.04329      3.96183      7.50000        -0.013267     -0.004656      0.000000
C      0.49334      8.41053      7.50000         0.022278     -0.000816     -0.000000
C      7.60989     -3.32117      7.50000        -0.007994      0.016474     -0.000000
C      6.51240      1.59245      7.50000        -0.001267      0.001584      0.000000
C      2.78988     -0.60809      7.50000         0.010386     -0.006102      0.000000
C      0.86182      7.03481      7.50000         0.007994     -0.016474     -0.000000
C      1.95931      2.12119      7.50000         0.001267     -0.001584     -0.000000
C      5.68183      4.32173      7.50000        -0.010386      0.006102     -0.000000
O      6.41894     -2.80159      7.50000        -0.013746      0.006893     -0.000000
O      6.71057      0.31115      7.50000        -0.014729     -0.007171     -0.000000
O      3.89016      0.10192      7.50000        -0.004576      0.000155     -0.000000
O      2.05277      6.51523      7.50000         0.013746     -0.006893      0.000000
O      1.76114      3.40249      7.50000         0.014729      0.007171     -0.000000
O      4.58155      3.61172      7.50000         0.004576     -0.000155     -0.000000
Ir      5.43172     -1.16638      7.50000         0.017873      0.012466     -0.000000
Ir      3.03999      4.88002      7.50000        -0.017873     -0.012466      0.000000
