152
# total energy = -1005.51386766 eVH     10.35389      5.87395      7.64558         0.160253      0.102401      0.572214
H     10.62451     15.10445      7.64558        -0.120430     -0.146857      0.500276
H     10.62451      5.87395     13.33282         0.573292      0.082587     -0.846863
H     10.35389     15.10445     13.33282         0.023318     -0.156672     -0.399471
H      7.64558     10.35389      5.87395         0.355599      0.039420      0.164761
H      7.64558     10.62451     15.10445         0.893881      0.539861      0.006972
H     13.33282     10.62451      5.87395        -0.436587      0.351124      0.109792
H     13.33282     10.35389     15.10445        -0.850415     -0.072323      0.006574
H      5.87395      7.64558     10.35389         0.319679      1.214001      0.031252
H     15.10445      7.64558     10.62451        -0.107801      0.489231      0.295424
H      5.87395     13.33282     10.62451         0.183171     -0.611229      0.050286
H     15.10445     13.33282     10.35389        -0.080858     -0.949444     -0.201006
H      5.87395     10.35389      7.64558         0.206338      0.052654      0.440760
H     15.10445     10.62451      7.64558        -0.141559      0.518735      0.770607
H      5.87395     10.62451     13.33282         0.045877      0.432886     -1.048185
H     15.10445     10.35389     13.33282        -0.075275     -0.032136     -0.640562
H     10.35389      7.64558      5.87395         0.329859      1.173332      0.066822
H     10.62451      7.64558     15.10445         0.677761      0.684096     -0.219264
H     10.62451     13.33282      5.87395        -0.398077     -0.812437      0.271351
H     10.35389     13.33282     15.10445        -0.103045     -0.470963     -0.290065
H      7.64558      5.87395     10.35389         0.826120      0.057435     -0.209274
H      7.64558     15.10445     10.62451         0.802953     -0.178701      0.033247
H     13.33282      5.87395     10.62451        -0.713095      0.166538      0.511926
H     13.33282     15.10445     10.35389        -0.376325     -0.119502     -0.091226
H     12.45634     12.45634     19.01126         0.246206      0.271930     -0.232737
H     19.01126     19.01126     19.01126        -0.275351     -0.249962     -0.238784
H     19.01126     12.45634     12.45634        -0.278152      0.262787      0.219459
H     12.45634     19.01126     12.45634         0.236324     -0.262620      0.273448
C     10.35284      5.61067      6.59456        -0.318836     -0.753625     -0.111985
C     10.62556     15.36773      6.59456         0.058926      0.326693     -0.266832
C     10.62556      5.61067     14.38384        -0.149071     -0.512352      0.304503
C     10.35284     15.36773     14.38384         0.018506      0.187604      0.349035
C      6.59456     10.35284      5.61067        -0.397559      0.012056     -0.249939
C      6.59456     10.62556     15.36773        -0.663404      0.091781      0.646386
C     14.38384     10.62556      5.61067        -0.262268     -0.463550     -0.681806
C     14.38384     10.35284     15.36773         1.049390     -0.088355      0.177857
C      5.61067      6.59456     10.35284        -0.740832     -0.262503     -0.338934
C     15.36773      6.59456     10.62556         0.532750      0.016126     -0.358363
C      5.61067     14.38384     10.62556        -0.222231      0.657851     -0.018589
C     15.36773     14.38384     10.35284         0.272815      0.955498      0.026169
C      5.61067     10.35284      6.59456        -0.300101      0.006981     -0.775434
C     15.36773     10.62556      6.59456         0.496543     -0.263924      0.213148
C      5.61067     10.62556     14.38384        -0.690597     -0.008678      0.553133
C     15.36773     10.35284     14.38384         0.428077     -0.033774      0.996518
C     10.35284      6.59456      5.61067        -0.132826     -0.772153     -0.568495
C     10.62556      6.59456     15.36773        -0.063911     -0.457995      0.578632
C     10.62556     14.38384      5.61067         0.197844      1.165138     -0.347781
C     10.35284     14.38384     15.36773        -0.003162      0.838439      0.385029
C      6.59456      5.61067     10.35284         0.141952     -1.066379      0.273217
C      6.59456     15.36773     10.62556        -0.976585      0.228894      0.078824
C     14.38384      5.61067     10.62556         0.301168     -0.561010     -0.366552
C     14.38384     15.36773     10.35284         0.141530      0.362891     -0.078474
C     10.40319      3.19606      7.29314         0.003668      0.855141     -0.448943
C     10.35913      4.25547      6.23373         0.063421     -0.546401      0.108753
C      0.08601      7.29314      7.29314        -0.041166     -0.832533     -0.235981
C      0.13007      6.23373      6.23373        -0.045718      0.209201      0.450124
C      0.08601      3.19606      3.19606         0.020640      1.416229      0.265707
C      0.13007      4.25547      4.25547         0.013106     -0.609891     -0.272551
C     10.40319      7.29314      3.19606         0.001969     -0.334248      0.265861
C     10.35913      6.23373      4.25547         0.030479      0.023259     -0.732614
C      7.29314     10.40319      3.19606        -0.262060      0.017850      0.533414
C      6.23373     10.35913      4.25547         0.141227      0.042905     -0.058891
C      7.29314      0.08601      7.29314        -0.844180     -0.076225     -0.307767
C      6.23373      0.13007      6.23373         0.815092     -0.175371      0.416269
C      3.19606      0.08601      3.19606         0.919436     -0.025916      0.571049
C      4.25547      0.13007      4.25547        -0.538372     -0.093583     -0.651186
C      3.19606     10.40319      7.29314         0.547623     -0.009860     -0.761442
C      4.25547     10.35913      6.23373        -0.264643      0.065035      0.216139
C      3.19606      7.29314     10.40319         0.298404     -1.311367      0.025554
C      4.25547      6.23373     10.35913        -1.058619      0.023318      0.116766
C      7.29314      7.29314      0.08601        -0.439955     -0.426406     -0.013571
C      6.23373      6.23373      0.13007         0.546551      0.235923      0.016785
C      3.19606      3.19606      0.08601         0.450097      0.348463     -0.033685
C      4.25547      4.25547      0.13007        -0.131609     -0.576753     -0.046407
C      7.29314      3.19606     10.40319        -0.390250      0.449368      0.055813
C      6.23373      4.25547     10.35913         0.262484     -0.743106      0.138355
O     10.43466      3.58206      8.50569        -0.014542      0.053069      0.447569
O     10.54374     17.39634      8.50569         0.064807     -0.076153      0.341299
O     10.54374      3.58206     12.47271         0.025682     -0.120580     -0.142437
O     10.43466     17.39634     12.47271        -0.027885     -0.166790     -0.519045
O      8.50569     10.43466      3.58206         0.279060     -0.021897      0.012236
O      8.50569     10.54374     17.39634         0.790432     -0.045059     -0.176546
O     12.47271     10.54374      3.58206        -0.802195      0.097505      0.085861
O     12.47271     10.43466     17.39634        -0.478935      0.034075     -0.078143
O      3.58206      8.50569     10.43466         0.155099      1.085977     -0.034847
O     17.39634      8.50569     10.54374        -0.158729      0.587841      0.067635
O      3.58206     12.47271     10.54374         0.103219     -0.437060      0.036323
O     17.39634     12.47271     10.43466        -0.145076     -0.557711     -0.031144
O      3.58206     10.43466      8.50569         0.066292     -0.090228      0.607009
O     17.39634     10.54374      8.50569        -0.031845      0.089687      0.421959
O      3.58206     10.54374     12.47271         0.015531      0.035745     -0.491203
O     17.39634     10.43466     12.47271        -0.229364     -0.046182     -0.645938
O     10.43466      8.50569      3.58206        -0.038726      0.451925      0.139503
O     10.54374      8.50569     17.39634        -0.061391      0.707727     -0.219541
O     10.54374     12.47271      3.58206         0.034862     -0.995857      0.106167
O     10.43466     12.47271     17.39634         0.059502     -0.802509     -0.213447
O      8.50569      3.58206     10.43466         0.579245      0.152240     -0.053827
O      8.50569     17.39634     10.54374         0.530602     -0.179949     -0.000699
O     12.47271      3.58206     10.54374        -0.603931      0.193724      0.003266
O     12.47271     17.39634     10.43466        -0.252962      0.072782     -0.044279
O     11.90042     11.90042     19.56718        -0.263829     -0.309552      0.228716
O     19.56718     19.56718     19.56718         0.325606      0.293663      0.246750
O     19.56718     11.90042     11.90042         0.317342     -0.261068     -0.235651
O     11.90042     19.56718     11.90042        -0.239068      0.301129     -0.330470
O      9.45224      1.03696      9.45224         0.002504      0.067697     -0.132018
O      1.03696      9.45224      9.45224         0.084193     -0.074111     -0.170088
O      1.03696      1.03696      1.03696         0.111119      0.167691      0.027939
O      9.45224      9.45224      1.03696        -0.093957     -0.113154      0.011475
Zr     10.48920      2.52580     10.48920        -0.093886     -0.217549     -0.020451
Zr     10.48920     18.45260     10.48920        -0.098239      0.185828      0.184821
Zr     10.48920     10.48920      2.52580        -0.100121     -0.442181     -0.205787
Zr     10.48920     10.48920     18.45260        -0.151440      0.030753      0.434450
Zr      2.52580     10.48920     10.48920        -0.338168      0.288946      0.298729
Zr     18.45260     10.48920     10.48920         0.161039      0.015792     -0.103677
Pd     13.62241      8.95637      9.11975         0.004402     -0.001599      0.018225
Pd      5.70284      9.72231      9.98481         0.010734      0.014211      0.017021
Pd      6.85453     11.39297     11.71488        -0.013460      0.065347     -0.007812
Pd     12.18265     13.12114      7.33979         0.003530     -0.007271     -0.007410
Pd     12.08935      7.88915      7.17469        -0.011427     -0.015822      0.022618
Pd      8.29178      7.05778      6.55130        -0.000821     -0.002545      0.015884
Pd     10.87178     11.29397      5.58078         0.015627     -0.007598     -0.000537
Pd     14.63843      8.53254      6.68653        -0.013959      0.000161      0.017835
Pd      9.63845     11.80726      8.00667         0.001777     -0.005736     -0.006078
Pd      6.69872      6.78272     12.30245         0.023636     -0.002269     -0.006932
Pd      6.39065      7.56149      8.27731        -0.010284      0.025209     -0.005206
Pd      6.98556      8.85633     13.88920        -0.031449     -0.040725      0.041092
Pd     11.64363      6.54734      9.46993        -0.019957      0.004284      0.033779
Pd      9.74294      9.29536      6.89589         0.000267     -0.001202      0.005309
Pd      9.02780     13.96908      9.41818        -0.004191     -0.002568     -0.004293
Pd     10.02366      7.07221     11.52523        -0.060568      0.038609      0.027282
Pd     10.52948      8.96540      9.54652        -0.003153      0.007017      0.007373
Pd      9.35975     11.26657     10.60769        -0.005383      0.014976     -0.000711
Pd      8.89496      6.99316      9.11816        -0.009834     -0.000088      0.011546
Pd      8.78049      6.92179     13.86538        -0.025329     -0.053515      0.049618
Pd      8.04658      8.91630     11.40796        -0.038680      0.057611      0.045152
Pd     11.95078     10.52725      7.83667         0.008339     -0.008650     -0.001385
Pd      7.14087     12.05585      9.15279        -0.004583      0.002793     -0.013535
Pd      8.02298      9.59080      8.79851         0.004734      0.000005      0.018576
Pd     14.18056      6.50266      8.44489        -0.020529     -0.006367      0.005781
Pd     12.54805      8.25428     11.46375        -0.014851     -0.001215      0.002893
Pd      8.82690     11.34109     13.43001        -0.019379      0.024032      0.001035
Pd     13.89416     11.93179      9.04146         0.004586     -0.006401     -0.003053
Pd     12.86411     10.57036     13.09017         0.003465      0.000302      0.000417
Pd     14.71358     10.30798     11.13395         0.012306      0.011258      0.005714
Pd     12.04791     10.73390     10.59377         0.006342      0.002124     -0.005565
Pd     11.45160     13.15486      9.87170        -0.003213     -0.000672     -0.009289
Pd     13.56886     12.81212     11.67415        -0.009639      0.007858     -0.002686
Pd     11.03567     12.53801     12.44510        -0.000131     -0.005730     -0.002361
Pd     11.10015     11.36210     14.88119        -0.014493     -0.011835     -0.002879
Pd     10.47100      9.50024     12.56123        -0.001146      0.032270     -0.014197
Pd      9.44245      9.30769     15.01006        -0.010695     -0.017730     -0.051306
Pd      8.61968     13.51921     11.99362         0.026163      0.028413      0.001071
