152
# total energy = -1060.85731850 eVH     10.35389      5.87395      7.64558        -0.500587      0.149417      1.207387
H     10.62451     15.10445      7.64558         0.082276     -0.111854      0.803793
H     10.62451      5.87395     13.33282        -0.254997      0.057067     -0.605297
H     10.35389     15.10445     13.33282         0.016466     -0.293468     -0.491747
H      7.64558     10.35389      5.87395         0.716577     -0.029588      0.209079
H      7.64558     10.62451     15.10445         0.195909      0.009067     -0.061645
H     13.33282     10.62451      5.87395        -0.612678     -0.074705      0.159488
H     13.33282     10.35389     15.10445        -0.306753     -0.059267     -0.086721
H      5.87395      7.64558     10.35389         0.126987      0.373024     -0.024834
H     15.10445      7.64558     10.62451        -0.120377      0.839258      0.397190
H      5.87395     13.33282     10.62451         0.134407     -0.557658     -0.009287
H     15.10445     13.33282     10.35389        -0.253608     -0.482882      0.102548
H      5.87395     10.35389      7.64558         0.257650      0.122129      0.351489
H     15.10445     10.62451      7.64558        -0.180753     -0.072032      0.318637
H      5.87395     10.62451     13.33282         0.013610      0.204960     -0.769583
H     15.10445     10.35389     13.33282         0.030813     -0.232590     -0.627958
H     10.35389      7.64558      5.87395        -0.097143      0.447751      0.269468
H     10.62451      7.64558     15.10445         0.369778      0.718020     -0.115522
H     10.62451     13.33282      5.87395         0.333854     -0.637111      0.125952
H     10.35389     13.33282     15.10445         0.140090     -0.540953     -0.114343
H      7.64558      5.87395     10.35389         0.445941      0.154471     -0.000216
H      7.64558     15.10445     10.62451         0.421408     -0.160505      0.262931
H     13.33282      5.87395     10.62451        -0.316814      0.104831      0.029805
H     13.33282     15.10445     10.35389        -0.555071     -0.243708      0.213136
H     12.45634     12.45634     19.01126         0.244853      0.267418     -0.237445
H     19.01126     19.01126     19.01126        -0.254216     -0.264619     -0.230971
H     19.01126     12.45634     12.45634        -0.232092      0.261300      0.250358
H     12.45634     19.01126     12.45634         0.294813     -0.212503      0.240084
C     10.35284      5.61067      6.59456         0.453120     -0.412469     -1.202724
C     10.62556     15.36773      6.59456        -0.155487      0.848782     -0.689687
C     10.62556      5.61067     14.38384         0.326470     -0.260706      0.584021
C     10.35284     15.36773     14.38384        -0.138422      0.312818      0.610919
C      6.59456     10.35284      5.61067        -0.681032     -0.127857     -0.190136
C      6.59456     10.62556     15.36773        -0.549239      0.073745      0.366393
C     14.38384     10.62556      5.61067         1.032704      0.036981     -0.464482
C     14.38384     10.35284     15.36773         0.283548     -0.072921      0.312218
C      5.61067      6.59456     10.35284        -0.358807     -0.519106      0.014915
C     15.36773      6.59456     10.62556         0.203267     -0.856461     -0.326055
C      5.61067     14.38384     10.62556        -0.222441      0.621489     -0.259711
C     15.36773     14.38384     10.35284         0.364497      0.895320     -0.121316
C      5.61067     10.35284      6.59456        -0.228100     -0.138576     -0.360914
C     15.36773     10.62556      6.59456         0.193798      0.061223     -0.291421
C      5.61067     10.62556     14.38384        -0.432832     -0.060006      1.352898
C     15.36773     10.35284     14.38384         0.265014     -0.029233      0.938256
C     10.35284      6.59456      5.61067        -0.039597     -0.306603     -0.478351
C     10.62556      6.59456     15.36773        -0.039759     -0.866843      0.314721
C     10.62556     14.38384      5.61067        -0.305628     -0.073941     -0.773601
C     10.35284     14.38384     15.36773        -0.254394      0.779279      0.282866
C      6.59456      5.61067     10.35284        -0.481000     -0.318626      0.117045
C      6.59456     15.36773     10.62556        -0.416794      0.519640      0.047416
C     14.38384      5.61067     10.62556         0.264139     -0.394079      0.109790
C     14.38384     15.36773     10.35284         0.903302      0.309011     -0.052601
C     10.40319      3.19606      7.29314         0.009857      0.680607     -0.372853
C     10.35913      4.25547      6.23373         0.005026     -0.513081      0.326276
C      0.08601      7.29314      7.29314        -0.015175     -0.717944     -0.585106
C      0.13007      6.23373      6.23373        -0.110716      0.861845      0.150673
C      0.08601      3.19606      3.19606        -0.026815      0.330418      0.354318
C      0.13007      4.25547      4.25547         0.058748     -0.169396     -0.667327
C     10.40319      7.29314      3.19606        -0.032189     -1.145967      1.007258
C     10.35913      6.23373      4.25547         0.016712      0.352241     -0.202384
C      7.29314     10.40319      3.19606        -0.822924     -0.043747      0.362670
C      6.23373     10.35913      4.25547         0.219823      0.050394     -0.452616
C      7.29314      0.08601      7.29314        -0.900748      0.010488     -0.410303
C      6.23373      0.13007      6.23373         0.116847      0.012039      0.085634
C      3.19606      0.08601      3.19606         0.388378     -0.003051      0.344505
C      4.25547      0.13007      4.25547        -0.253814     -0.046050     -0.182681
C      3.19606     10.40319      7.29314         0.489682     -0.043830     -1.147234
C      4.25547     10.35913      6.23373        -0.242897     -0.036580      0.126997
C      3.19606      7.29314     10.40319         0.788207     -0.476386      0.016569
C      4.25547      6.23373     10.35913        -0.108772      0.169753     -0.004305
C      7.29314      7.29314      0.08601        -0.404210     -0.286614     -0.013945
C      6.23373      6.23373      0.13007         0.368543      0.091958     -0.164376
C      3.19606      3.19606      0.08601         0.336649      0.683425     -0.012964
C      4.25547      4.25547      0.13007        -0.355597     -0.279933      0.025763
C      7.29314      3.19606     10.40319        -0.211840      0.631139      0.017898
C      6.23373      4.25547     10.35913         0.063606     -0.230782     -0.006676
O     10.43466      3.58206      8.50569        -0.024611      0.087866      0.335423
O     10.54374     17.39634      8.50569         0.074924     -0.020984      0.428302
O     10.54374      3.58206     12.47271         0.049431      0.200661     -0.550785
O     10.43466     17.39634     12.47271         0.042166      0.009003     -0.525464
O      8.50569     10.43466      3.58206         0.634708     -0.072370      0.087449
O      8.50569     10.54374     17.39634         0.874203      0.058071     -0.135799
O     12.47271     10.54374      3.58206        -0.349489      0.055240      0.033723
O     12.47271     10.43466     17.39634        -0.338869     -0.014629      0.084391
O      3.58206      8.50569     10.43466        -0.005513      0.419192     -0.081628
O     17.39634      8.50569     10.54374        -0.129633      0.419640      0.024974
O      3.58206     12.47271     10.54374         0.133350     -0.672697     -0.006380
O     17.39634     12.47271     10.43466        -0.268263     -0.711422     -0.006591
O      3.58206     10.43466      8.50569         0.132166     -0.045951      0.867978
O     17.39634     10.54374      8.50569         0.013015      0.044312      0.318785
O      3.58206     10.54374     12.47271         0.057026      0.016089     -0.418662
O     17.39634     10.43466     12.47271        -0.052217      0.018134     -0.379984
O     10.43466      8.50569      3.58206        -0.066221      0.536879     -0.151836
O     10.54374      8.50569     17.39634         0.031513      0.755979     -0.128295
O     10.54374     12.47271      3.58206         0.056700     -0.355455      0.086180
O     10.43466     12.47271     17.39634        -0.064857     -0.726427     -0.238932
O      8.50569      3.58206     10.43466         0.315573      0.039792     -0.061367
O      8.50569     17.39634     10.54374         0.536107     -0.140395      0.022772
O     12.47271      3.58206     10.54374        -0.433346      0.106683      0.015280
O     12.47271     17.39634     10.43466        -0.614051     -0.085787      0.047493
O     11.90042     11.90042     19.56718        -0.251076     -0.282834      0.215801
O     19.56718     19.56718     19.56718         0.296976      0.298095      0.253116
O     19.56718     11.90042     11.90042         0.242779     -0.289144     -0.308740
O     11.90042     19.56718     11.90042        -0.287444      0.163778     -0.253192
O      9.45224      1.03696      9.45224        -0.109360      0.119073     -0.096418
O      1.03696      9.45224      9.45224         0.138019     -0.145217     -0.140205
O      1.03696      1.03696      1.03696         0.160936      0.190623     -0.038170
O      9.45224      9.45224      1.03696        -0.182933     -0.213638      0.017978
Zr     10.48920      2.52580     10.48920         0.032050     -0.243378      0.234959
Zr     10.48920     18.45260     10.48920        -0.252126      0.289299     -0.287013
Zr     10.48920     10.48920      2.52580         0.142385      0.512001     -0.180160
Zr     10.48920     10.48920     18.45260         0.006333     -0.113510      0.465965
Zr      2.52580     10.48920     10.48920        -0.508308      0.101807      0.401521
Zr     18.45260     10.48920     10.48920         0.242110     -0.182957      0.078690
Pd      9.14915     14.48742      9.10229        -0.127591     -0.139061      0.194995
Pd      8.25867     13.31399     13.67435         0.095835     -0.149252     -0.084094
Pd     11.87004     14.51129      8.89793        -0.039530     -0.403471     -0.072463
Pd     12.21903     12.78164     10.84205         0.253604      0.140185      0.262862
Pd     11.95585      7.13303     12.32180        -0.086886     -0.128868     -0.125476
Pd     10.98107     15.24384     11.26803        -0.096246      0.073641      0.125150
Pd      9.51398     13.06070     11.32387         0.073805     -0.042432     -0.055076
Pd     13.66747     12.60934      8.37541         0.379876      0.030127      0.022999
Pd     11.74454     11.71026      6.77390        -0.149961     -0.219047      0.228250
Pd      7.57550      8.30033      7.41096        -0.060179      0.160979     -0.027055
Pd      8.81471     11.90533      6.87206         0.037560      0.121541      0.034448
Pd      9.82186      9.77143      8.08172         0.167709     -0.320856     -0.075710
Pd      8.50662     14.53084      6.45554        -0.078848      0.056816      0.084240
Pd     12.22055      8.98472      7.06105         0.042718     -0.091791     -0.091385
Pd     10.29449      9.92933      5.43430        -0.311600     -0.064114      0.132452
Pd      6.83379      9.18327     12.26410         0.237795     -0.011180     -0.036827
Pd     12.21704      6.41117      7.88805         0.088844      0.095452      0.046154
Pd      5.65471     10.54611      9.93592         0.057176     -0.038361      0.053390
Pd      7.61080      6.74195     13.05875         0.054500      0.020007     -0.086618
Ir     11.32300      9.61798     12.96747        -0.060665      0.088266     -0.018204
Ir     13.22351      9.17701     11.33526        -0.098275      0.329147     -0.293960
Ir      9.15762      8.56815     13.95691         0.118957      0.095954     -0.067615
Ir     10.27735     10.54725     15.12993         0.006285      0.123353     -0.048019
Ir      7.03471     11.81526     11.76842         0.122832      0.058628     -0.171696
Ir     14.57296     11.13450     10.47237        -0.132443     -0.184845     -0.004622
Ir     12.45313     10.44532      9.25435        -0.244008      0.389444     -0.043464
Ir      8.88658     10.85622     12.93166         0.040164     -0.115979      0.047328
Ir     10.05122     10.23163     10.70826        -0.005797     -0.159387      0.171467
Ir     13.29116     11.33518     12.61658        -0.001071     -0.209226      0.207253
Ir     11.06200     12.13205     13.27160         0.004637      0.082003      0.100882
Ir      8.05073     11.58737      9.46165         0.017433      0.017514     -0.015246
Ir     11.39240      8.06902      9.77835        -0.080598      0.200398     -0.068935
Ir      7.00094     13.32944      8.19966         0.030087     -0.104850      0.066159
Ir      9.23842      7.15798      9.05901        -0.068435      0.196246      0.076844
Ir      7.86434      9.08148      9.89528         0.032489     -0.105243     -0.142602
Ir     10.50693     12.20188      8.97141        -0.057282      0.175579     -0.225671
Ir      9.41965      7.84611     11.52822         0.042199      0.102450     -0.114753
Ir     13.80573      8.20590      9.00450         0.017698      0.167736     -0.018570
