152
# total energy = -1005.47558807 eVH     10.35389      5.87395      7.64558         0.162640      0.100263      0.579930
H     10.62451     15.10445      7.64558        -0.125951     -0.144786      0.510199
H     10.62451      5.87395     13.33282         0.566972      0.079317     -0.856701
H     10.35389     15.10445     13.33282         0.021450     -0.155701     -0.395964
H      7.64558     10.35389      5.87395         0.354988      0.039106      0.164618
H      7.64558     10.62451     15.10445         0.907191      0.550802      0.016877
H     13.33282     10.62451      5.87395        -0.434934      0.356386      0.108996
H     13.33282     10.35389     15.10445        -0.843349     -0.071773      0.000429
H      5.87395      7.64558     10.35389         0.326053      1.232551      0.034930
H     15.10445      7.64558     10.62451        -0.108382      0.490677      0.299771
H      5.87395     13.33282     10.62451         0.181523     -0.606491      0.055412
H     15.10445     13.33282     10.35389        -0.083412     -0.952095     -0.201208
H      5.87395     10.35389      7.64558         0.208903      0.054881      0.440238
H     15.10445     10.62451      7.64558        -0.142759      0.522791      0.775378
H      5.87395     10.62451     13.33282         0.026875      0.452843     -1.072842
H     15.10445     10.35389     13.33282        -0.076922     -0.031925     -0.638233
H     10.35389      7.64558      5.87395         0.312423      1.188758      0.066128
H     10.62451      7.64558     15.10445         0.668814      0.689165     -0.219083
H     10.62451     13.33282      5.87395        -0.397439     -0.818080      0.273797
H     10.35389     13.33282     15.10445        -0.106356     -0.472830     -0.290968
H      7.64558      5.87395     10.35389         0.820169      0.058323     -0.197321
H      7.64558     15.10445     10.62451         0.800195     -0.178824      0.034041
H     13.33282      5.87395     10.62451        -0.707382      0.162901      0.507429
H     13.33282     15.10445     10.35389        -0.378738     -0.120378     -0.091053
H     12.45634     12.45634     19.01126         0.246399      0.272415     -0.232679
H     19.01126     19.01126     19.01126        -0.276130     -0.250294     -0.237679
H     19.01126     12.45634     12.45634        -0.278498      0.262378      0.219037
H     12.45634     19.01126     12.45634         0.236337     -0.262101      0.274133
C     10.35284      5.61067      6.59456        -0.318518     -0.769842     -0.136486
C     10.62556     15.36773      6.59456         0.056995      0.317731     -0.278379
C     10.62556      5.61067     14.38384        -0.146757     -0.508302      0.346140
C     10.35284     15.36773     14.38384         0.018647      0.186021      0.343164
C      6.59456     10.35284      5.61067        -0.396017      0.011027     -0.244243
C      6.59456     10.62556     15.36773        -0.691726      0.104283      0.659128
C     14.38384     10.62556      5.61067        -0.279248     -0.456896     -0.680363
C     14.38384     10.35284     15.36773         1.041496     -0.088316      0.177506
C      5.61067      6.59456     10.35284        -0.745396     -0.283536     -0.335052
C     15.36773      6.59456     10.62556         0.526876      0.025396     -0.372681
C      5.61067     14.38384     10.62556        -0.211829      0.637084     -0.017941
C     15.36773     14.38384     10.35284         0.267511      0.954575      0.025285
C      5.61067     10.35284      6.59456        -0.301810      0.010732     -0.785242
C     15.36773     10.62556      6.59456         0.498747     -0.255824      0.213012
C      5.61067     10.62556     14.38384        -0.710064      0.003036      0.615656
C     15.36773     10.35284     14.38384         0.424954     -0.032238      0.990897
C     10.35284      6.59456      5.61067        -0.124175     -0.778984     -0.568214
C     10.62556      6.59456     15.36773        -0.049913     -0.490785      0.575704
C     10.62556     14.38384      5.61067         0.193425      1.182848     -0.348224
C     10.35284     14.38384     15.36773        -0.003120      0.847202      0.387125
C      6.59456      5.61067     10.35284         0.152306     -1.075108      0.289452
C      6.59456     15.36773     10.62556        -0.975922      0.231109      0.079093
C     14.38384      5.61067     10.62556         0.287193     -0.567162     -0.362315
C     14.38384     15.36773     10.35284         0.145016      0.357357     -0.076858
C     10.40319      3.19606      7.29314         0.003345      0.852020     -0.447022
C     10.35913      4.25547      6.23373         0.062507     -0.545781      0.111300
C      0.08601      7.29314      7.29314        -0.040651     -0.853731     -0.233580
C      0.13007      6.23373      6.23373        -0.047476      0.224752      0.435206
C      0.08601      3.19606      3.19606         0.021355      1.408066      0.263385
C      0.13007      4.25547      4.25547         0.009488     -0.592436     -0.284144
C     10.40319      7.29314      3.19606         0.002030     -0.334399      0.265242
C     10.35913      6.23373      4.25547         0.033073      0.021830     -0.734312
C      7.29314     10.40319      3.19606        -0.264570      0.017527      0.528720
C      6.23373     10.35913      4.25547         0.139424      0.042225     -0.058062
C      7.29314      0.08601      7.29314        -0.863061     -0.076742     -0.308116
C      6.23373      0.13007      6.23373         0.822798     -0.180892      0.413355
C      3.19606      0.08601      3.19606         0.898135     -0.028478      0.564942
C      4.25547      0.13007      4.25547        -0.529098     -0.102524     -0.659649
C      3.19606     10.40319      7.29314         0.543909     -0.011169     -0.769859
C      4.25547     10.35913      6.23373        -0.259202      0.064191      0.216328
C      3.19606      7.29314     10.40319         0.304166     -1.328519      0.021959
C      4.25547      6.23373     10.35913        -1.071551      0.025967      0.118367
C      7.29314      7.29314      0.08601        -0.445216     -0.432807     -0.012967
C      6.23373      6.23373      0.13007         0.560145      0.233473      0.019126
C      3.19606      3.19606      0.08601         0.447537      0.344023     -0.033387
C      4.25547      4.25547      0.13007        -0.131689     -0.572758     -0.046983
C      7.29314      3.19606     10.40319        -0.399548      0.455286      0.055559
C      6.23373      4.25547     10.35913         0.267049     -0.748428      0.140911
O     10.43466      3.58206      8.50569        -0.015175      0.052762      0.447160
O     10.54374     17.39634      8.50569         0.065979     -0.071226      0.331418
O     10.54374      3.58206     12.47271         0.025488     -0.118083     -0.140804
O     10.43466     17.39634     12.47271        -0.027883     -0.166087     -0.520365
O      8.50569     10.43466      3.58206         0.284715     -0.021137      0.013497
O      8.50569     10.54374     17.39634         0.801899     -0.048207     -0.178133
O     12.47271     10.54374      3.58206        -0.795528      0.098255      0.089370
O     12.47271     10.43466     17.39634        -0.476258      0.033497     -0.075288
O      3.58206      8.50569     10.43466         0.150848      1.099017     -0.035606
O     17.39634      8.50569     10.54374        -0.158694      0.592226      0.067170
O      3.58206     12.47271     10.54374         0.103913     -0.438481      0.034673
O     17.39634     12.47271     10.43466        -0.144275     -0.562721     -0.031445
O      3.58206     10.43466      8.50569         0.062071     -0.090133      0.607077
O     17.39634     10.54374      8.50569        -0.027723      0.089746      0.416674
O      3.58206     10.54374     12.47271         0.021489      0.036255     -0.493440
O     17.39634     10.43466     12.47271        -0.227315     -0.046956     -0.643714
O     10.43466      8.50569      3.58206        -0.038985      0.453747      0.140194
O     10.54374      8.50569     17.39634        -0.066145      0.716775     -0.224707
O     10.54374     12.47271      3.58206         0.033882     -0.994784      0.115148
O     10.43466     12.47271     17.39634         0.059785     -0.799983     -0.214120
O      8.50569      3.58206     10.43466         0.585847      0.151552     -0.053795
O      8.50569     17.39634     10.54374         0.534772     -0.179002     -0.002111
O     12.47271      3.58206     10.54374        -0.602622      0.192388      0.003739
O     12.47271     17.39634     10.43466        -0.254144      0.076939     -0.043624
O     11.90042     11.90042     19.56718        -0.264817     -0.311709      0.228060
O     19.56718     19.56718     19.56718         0.326175      0.292677      0.243649
O     19.56718     11.90042     11.90042         0.318276     -0.261356     -0.235467
O     11.90042     19.56718     11.90042        -0.239918      0.300612     -0.332430
O      9.45224      1.03696      9.45224         0.002665      0.065452     -0.134133
O      1.03696      9.45224      9.45224         0.083036     -0.075134     -0.172127
O      1.03696      1.03696      1.03696         0.109090      0.165230      0.028618
O      9.45224      9.45224      1.03696        -0.091827     -0.112237      0.011217
Zr     10.48920      2.52580     10.48920        -0.090716     -0.212481     -0.022995
Zr     10.48920     18.45260     10.48920        -0.097420      0.185686      0.193012
Zr     10.48920     10.48920      2.52580        -0.092331     -0.442186     -0.201664
Zr     10.48920     10.48920     18.45260        -0.143051      0.045103      0.439641
Zr      2.52580     10.48920     10.48920        -0.335231      0.296856      0.307723
Zr     18.45260     10.48920     10.48920         0.158321      0.019927     -0.097892
Pd     13.61029      8.95843      9.10854         0.018851     -0.006089      0.016902
Pd      5.69739      9.70564      9.96200         0.000127      0.030783      0.045367
Pd      6.86275     11.34525     11.70997        -0.016783      0.076293      0.016118
Pd     12.17241     13.13732      7.35435         0.024347     -0.033634     -0.029050
Pd     12.08775      7.89255      7.15481         0.022651      0.002842      0.035053
Pd      8.29051      7.05712      6.55371         0.009695     -0.000547     -0.021065
Pd     10.86040     11.30172      5.59120         0.011494     -0.016943     -0.024415
Pd     14.63610      8.53588      6.68505         0.008720     -0.005348     -0.009218
Pd      9.62419     11.81254      8.01464         0.039742     -0.017877     -0.017335
Pd      6.68854      6.78950     12.30463         0.016148     -0.010505     -0.002140
Pd      6.38916      7.54158      8.27920         0.010572      0.031785      0.005187
Pd      7.00989      8.88748     13.86121        -0.048092     -0.051762      0.044810
Pd     11.65664      6.55019      9.44384        -0.011769     -0.015013      0.042520
Pd      9.74759      9.29261      6.90676        -0.011873      0.016026     -0.034029
Pd      9.03952     13.97680      9.42599        -0.023170     -0.014020     -0.008432
Pd     10.04768      7.05026     11.50000        -0.022609      0.027921      0.045752
Pd     10.53035      8.96076      9.54682        -0.011815     -0.005053     -0.001526
Pd      9.37000     11.25293     10.61303        -0.024612      0.032837     -0.020611
Pd      8.90394      6.96951      9.11176        -0.019029      0.063102      0.006117
Pd      8.80236      6.95760     13.82848        -0.040664     -0.060719      0.058795
Pd      8.07039      8.88914     11.38865        -0.041195      0.030761      0.022953
Pd     11.93988     10.54230      7.84563         0.024527     -0.028696     -0.014369
Pd      7.14909     12.05482      9.16517        -0.014183      0.000897     -0.023098
Pd      8.01889      9.57893      8.79601         0.009186      0.024883     -0.000754
Pd     14.19774      6.51010      8.44420        -0.034570     -0.012320      0.003300
Pd     12.55096      8.25146     11.45499         0.003165      0.006934      0.015975
Pd      8.83154     11.33028     13.42833         0.004218      0.015800     -0.003382
Pd     13.89755     11.93164      9.04158        -0.009733      0.004096     -0.001919
Pd     12.86249     10.57214     13.08415         0.007451     -0.004504      0.013563
Pd     14.70812     10.29093     11.13130         0.003011      0.033221      0.004475
Pd     12.04647     10.73679     10.59281         0.007198     -0.004577      0.004296
Pd     11.45924     13.16662      9.88398        -0.021120     -0.028441     -0.016481
Pd     13.57023     12.81416     11.67742         0.003642     -0.008252     -0.005844
Pd     11.03291     12.54438     12.44419         0.013196     -0.011768      0.001754
Pd     11.10642     11.37202     14.87215        -0.009412     -0.018057      0.024146
Pd     10.47708      9.47879     12.57141        -0.014218      0.042683     -0.015875
Pd      9.45274      9.31805     15.03072        -0.011766     -0.016378     -0.012013
Pd      8.60842     13.50242     11.99081         0.008227      0.026452      0.000198
