152
# total energy = -1060.47647649 eVH     10.35389      5.87395      7.64558        -0.217905      0.136443      0.991376
H     10.62451     15.10445      7.64558         0.312658     -0.087920      0.822603
H     10.62451      5.87395     13.33282        -0.301638      0.081964     -0.733499
H     10.35389     15.10445     13.33282         0.154686     -0.278097     -0.757392
H      7.64558     10.35389      5.87395         0.862863     -0.227194      0.216081
H      7.64558     10.62451     15.10445         0.247327      0.030535     -0.058756
H     13.33282     10.62451      5.87395        -0.791946      0.089425      0.152005
H     13.33282     10.35389     15.10445        -0.302726     -0.088554     -0.030202
H      5.87395      7.64558     10.35389         0.099742      0.422977      0.009658
H     15.10445      7.64558     10.62451        -0.098946      0.598688      0.176736
H      5.87395     13.33282     10.62451         0.011328     -0.917058      0.101297
H     15.10445     13.33282     10.35389        -0.191453     -0.383596      0.027369
H      5.87395     10.35389      7.64558         0.287613      0.051622      0.366034
H     15.10445     10.62451      7.64558        -0.129188     -0.140975      0.594603
H      5.87395     10.62451     13.33282        -0.055501      0.430738     -0.703523
H     15.10445     10.35389     13.33282         0.176381     -0.443837     -0.911365
H     10.35389      7.64558      5.87395         0.018669      0.506048      0.355946
H     10.62451      7.64558     15.10445         0.229526      0.667288     -0.099125
H     10.62451     13.33282      5.87395         0.074492     -0.557336      0.209761
H     10.35389     13.33282     15.10445         0.066509     -0.349019     -0.124452
H      7.64558      5.87395     10.35389         0.406803      0.132752      0.059965
H      7.64558     15.10445     10.62451         0.388888     -0.129590      0.208361
H     13.33282      5.87395     10.62451        -0.311236      0.126749     -0.015017
H     13.33282     15.10445     10.35389        -0.642337     -0.180769      0.195347
H     12.45634     12.45634     19.01126         0.261306      0.268400     -0.222594
H     19.01126     19.01126     19.01126        -0.249668     -0.269625     -0.236899
H     19.01126     12.45634     12.45634        -0.242777      0.268857      0.241653
H     12.45634     19.01126     12.45634         0.294527     -0.226411      0.236725
C     10.35284      5.61067      6.59456         0.387704     -0.319355     -1.202265
C     10.62556     15.36773      6.59456        -0.218887      0.648273     -0.556847
C     10.62556      5.61067     14.38384         0.346471     -0.274572      0.770089
C     10.35284     15.36773     14.38384        -0.198419      0.351898      0.943592
C      6.59456     10.35284      5.61067        -1.245319      0.022706     -0.213733
C      6.59456     10.62556     15.36773        -0.641513      0.064729      0.367262
C     14.38384     10.62556      5.61067         1.363705     -0.144894     -0.614677
C     14.38384     10.35284     15.36773         0.325434     -0.131480      0.419792
C      5.61067      6.59456     10.35284        -0.266106     -0.614189     -0.013348
C     15.36773      6.59456     10.62556         0.363836     -0.880044     -0.134713
C      5.61067     14.38384     10.62556        -0.178790      1.046838     -0.263796
C     15.36773     14.38384     10.35284         0.457888      0.791694     -0.081855
C      5.61067     10.35284      6.59456        -0.291330     -0.111232     -0.586265
C     15.36773     10.62556      6.59456         0.299550      0.118630     -0.530962
C      5.61067     10.62556     14.38384        -0.295882     -0.154198      1.244537
C     15.36773     10.35284     14.38384         0.174715      0.148170      1.243901
C     10.35284      6.59456      5.61067        -0.044326     -0.697421     -0.427551
C     10.62556      6.59456     15.36773        -0.044663     -0.805318      0.376451
C     10.62556     14.38384      5.61067        -0.460700      0.388794     -0.779538
C     10.35284     14.38384     15.36773        -0.163791      0.653899      0.500519
C      6.59456      5.61067     10.35284        -0.543198     -0.319415      0.030024
C      6.59456     15.36773     10.62556        -0.285882      0.493271      0.084208
C     14.38384      5.61067     10.62556         0.404110     -0.330406      0.047067
C     14.38384     15.36773     10.35284         1.058568      0.377657     -0.111289
C     10.40319      3.19606      7.29314        -0.012055      0.900954     -0.366573
C     10.35913      4.25547      6.23373         0.045100     -0.382061      0.289563
C      0.08601      7.29314      7.29314        -0.016225     -0.513682     -0.503148
C      0.13007      6.23373      6.23373        -0.078854      0.824825      0.049111
C      0.08601      3.19606      3.19606        -0.009553      0.661107      0.268357
C      0.13007      4.25547      4.25547         0.069498     -0.247102     -0.617434
C     10.40319      7.29314      3.19606        -0.048005     -1.076802      0.769618
C     10.35913      6.23373      4.25547        -0.040959      0.348099     -0.225410
C      7.29314     10.40319      3.19606        -1.003726     -0.053963      0.275367
C      6.23373     10.35913      4.25547         0.376350      0.110580     -0.520440
C      7.29314      0.08601      7.29314        -0.731979      0.018897     -0.368948
C      6.23373      0.13007      6.23373         0.173048      0.089556      0.118250
C      3.19606      0.08601      3.19606         0.628610      0.008663      0.174772
C      4.25547      0.13007      4.25547        -0.208244     -0.087457     -0.291354
C      3.19606     10.40319      7.29314         0.498977     -0.035069     -0.955495
C      4.25547     10.35913      6.23373        -0.140849     -0.016392      0.161072
C      3.19606      7.29314     10.40319         0.669167     -0.409576      0.006131
C      4.25547      6.23373     10.35913        -0.112503      0.173971      0.000552
C      7.29314      7.29314      0.08601        -0.416632     -0.298722     -0.018303
C      6.23373      6.23373      0.13007         0.213182      0.121354     -0.135333
C      3.19606      3.19606      0.08601         0.322434      0.541934     -0.021977
C      4.25547      4.25547      0.13007        -0.436868     -0.283985     -0.009354
C      7.29314      3.19606     10.40319        -0.279170      0.623187     -0.001222
C      6.23373      4.25547     10.35913         0.016741     -0.156092      0.021033
O     10.43466      3.58206      8.50569        -0.034118      0.038916      0.243689
O     10.54374     17.39634      8.50569         0.060696     -0.072246      0.514808
O     10.54374      3.58206     12.47271         0.031754      0.109352     -0.430136
O     10.43466     17.39634     12.47271         0.084289     -0.053625     -0.496751
O      8.50569     10.43466      3.58206         0.672688     -0.078841      0.043222
O      8.50569     10.54374     17.39634         0.744437      0.083667     -0.117486
O     12.47271     10.54374      3.58206        -0.607727      0.124580      0.208878
O     12.47271     10.43466     17.39634        -0.353954     -0.000256      0.034584
O      3.58206      8.50569     10.43466         0.022164      0.444198     -0.074998
O     17.39634      8.50569     10.54374        -0.079426      0.440961      0.048766
O      3.58206     12.47271     10.54374         0.128484     -0.614491     -0.003864
O     17.39634     12.47271     10.43466        -0.231027     -0.746236     -0.014830
O      3.58206     10.43466      8.50569         0.180683     -0.044056      0.799492
O     17.39634     10.54374      8.50569        -0.000587      0.040630      0.323715
O      3.58206     10.54374     12.47271         0.001594      0.003141     -0.286884
O     17.39634     10.43466     12.47271        -0.020302      0.000838     -0.326371
O     10.43466      8.50569      3.58206        -0.111813      0.534931     -0.084993
O     10.54374      8.50569     17.39634         0.056808      0.594921     -0.075916
O     10.54374     12.47271      3.58206         0.100778     -0.598969      0.113586
O     10.43466     12.47271     17.39634        -0.049210     -0.838506     -0.310969
O      8.50569      3.58206     10.43466         0.374956      0.021037     -0.060468
O      8.50569     17.39634     10.54374         0.601563     -0.142027      0.051070
O     12.47271      3.58206     10.54374        -0.508939      0.120519      0.027555
O     12.47271     17.39634     10.43466        -0.622534     -0.101160      0.050139
O     11.90042     11.90042     19.56718        -0.273082     -0.282898      0.222765
O     19.56718     19.56718     19.56718         0.299095      0.315162      0.289973
O     19.56718     11.90042     11.90042         0.274767     -0.314807     -0.247789
O     11.90042     19.56718     11.90042        -0.315322      0.215873     -0.203814
O      9.45224      1.03696      9.45224        -0.115793      0.140572     -0.044621
O      1.03696      9.45224      9.45224         0.146344     -0.139850     -0.044539
O      1.03696      1.03696      1.03696         0.078775      0.078025      0.085014
O      9.45224      9.45224      1.03696        -0.080653     -0.127487      0.141769
Zr     10.48920      2.52580     10.48920         0.040260     -0.156068      0.162440
Zr     10.48920     18.45260     10.48920        -0.178518      0.236877     -0.387706
Zr     10.48920     10.48920      2.52580         0.122800      0.367078     -0.281648
Zr     10.48920     10.48920     18.45260        -0.024582     -0.263463      0.292772
Zr      2.52580     10.48920     10.48920        -0.306469      0.091952      0.251291
Zr     18.45260     10.48920     10.48920         0.184975     -0.152626     -0.041999
Pd      9.32762     14.39679      9.20296        -0.020506      0.051275     -0.069140
Pd      8.58832     13.69564     13.10682        -0.015885     -0.012108      0.032723
Pd     12.03649     14.35710      8.83055        -0.047464      0.010163      0.043082
Pd     12.57116     12.83644     10.86474        -0.075179     -0.026763     -0.086753
Pd     12.09559      7.13410     12.55646         0.016672      0.035004      0.009134
Pd     11.03957     15.07321     11.34476         0.034510      0.054974      0.007947
Pd      9.91202     12.72472     10.99953        -0.039707     -0.051604      0.040506
Pd     13.55325     12.23966      8.05162         0.049160      0.086094     -0.014319
Pd     11.53521     11.63812      6.13985         0.026832      0.030524      0.012623
Pd      7.89826      8.19321      7.49859        -0.070938      0.006087     -0.043466
Pd      8.71309     11.78970      6.83004         0.030818     -0.018946      0.014011
Pd     10.11464      9.53018      8.22410        -0.069807      0.040914     -0.038179
Pd      8.50095     14.50045      6.69408        -0.089128     -0.026617     -0.065928
Pd     12.32256      9.22661      6.92535        -0.014036      0.072303      0.027580
Pd      9.80518      9.62964      5.59589         0.077908      0.066785      0.012477
Pd      6.92758      9.45015     12.23623        -0.037232     -0.064791     -0.056932
Pd     12.27673      6.75141      7.89897        -0.010942     -0.105132      0.050517
Pd      5.88195     10.48253      9.81608        -0.064332      0.002398     -0.001629
Pd      7.52925      7.06779     13.28201         0.034010     -0.011188     -0.018218
Ir     11.53401      9.69189     13.10437        -0.001583     -0.058681     -0.009203
Ir     13.40247      9.17390     11.50776        -0.054932     -0.053391      0.058506
Ir      9.23856      8.84028     14.00974        -0.061703     -0.143361      0.045566
Ir     10.39204     10.78168     15.14693         0.026634      0.026587     -0.012102
Ir      7.28508     12.00875     11.42903        -0.059446     -0.002641      0.031096
Ir     14.59473     11.06040     10.40107        -0.020591      0.073744      0.002964
Ir     12.26079     10.53679      9.53205        -0.031768     -0.040552     -0.023323
Ir      8.91916     11.08129     12.98112        -0.035503      0.042321      0.006844
Ir     10.09072      9.98806     10.99963         0.044030      0.001583     -0.077218
Ir     13.49253     11.40047     12.72958         0.079337      0.049193     -0.049729
Ir     11.22774     12.23282     13.17616         0.033736     -0.056438      0.057992
Ir      8.39512     11.21779      9.32488         0.031205      0.044858      0.002216
Ir     11.57060      8.02544     10.05555        -0.059590     -0.012140      0.006602
Ir      7.15915     13.13217      8.58182        -0.033424      0.087176     -0.003454
Ir      9.50377      6.97867      9.25047        -0.040108     -0.039697      0.001275
Ir      8.00434      8.82688     10.01296         0.003548      0.010828      0.003578
Ir     10.71785     12.12766      8.51986        -0.009907      0.033453      0.052232
Ir      9.52115      7.68208     11.74791        -0.006223     -0.059652     -0.029005
Ir     13.83920      8.62137      9.02736         0.049021     -0.036941      0.027247
