36
# total energy = -218.40168236 eVH      4.98121      4.37673      7.50000         0.004989     -0.008119     -0.000000
H      4.98109      8.62764      7.50000         0.002779      0.004837     -0.000000
H      1.29975      6.50208      7.50000        -0.005586     -0.000511     -0.000000
H      6.28085      2.12542      7.50000        -0.004989      0.008119     -0.000000
H      6.28096     -2.12549      7.50000        -0.002779     -0.004837      0.000000
H      9.96230      0.00007      7.50000         0.005586      0.000511     -0.000000
C      6.81827     -1.19471      7.50000        -0.011039     -0.022391     -0.000000
C      8.88756      0.00013      7.50000         0.024906     -0.001873     -0.000000
C      6.81816      1.19477      7.50000        -0.009137      0.016016     -0.000000
C      4.44378      7.69686      7.50000         0.011039      0.022391     -0.000000
C      2.37449      6.50202      7.50000        -0.024906      0.001873     -0.000000
C      4.44389      5.30738      7.50000         0.009137     -0.016016     -0.000000
C      0.00011      1.38398      7.50000         0.000029     -0.008567     -0.000000
C     10.06343      5.81026      7.50000         0.007573      0.004345     -0.000000
C      1.19851     12.31221      7.50000        -0.007351      0.004391      0.000000
C     11.26194      5.11817      7.50000        -0.000029      0.008567     -0.000000
C      1.19862      0.69189      7.50000        -0.007573     -0.004345     -0.000000
C     10.06355     -5.81006      7.50000         0.007351     -0.004391      0.000000
O      6.15730     -0.00007      7.50000         0.052934      0.001545     -0.000000
O      8.18346     -1.16974      7.50000        -0.026719      0.047098     -0.000000
O      8.18335      1.16980      7.50000        -0.028417     -0.044661     -0.000000
O      5.10475      6.50222      7.50000        -0.052934     -0.001545      0.000000
O      3.07860      7.67189      7.50000         0.026719     -0.047098     -0.000000
O      3.07871      5.33235      7.50000         0.028417      0.044661     -0.000000
O      0.00023      2.74885      7.50000        -0.001260     -0.035677      0.000000
O      8.88137      5.12792      7.50000         0.031240      0.016643     -0.000000
O      2.38046     11.62968      7.50000        -0.030358      0.018878      0.000000
O     11.26183      3.75330      7.50000         0.001260      0.035677     -0.000000
O      2.38069      1.37423      7.50000        -0.031240     -0.016643     -0.000000
O      8.88159     -5.12753      7.50000         0.030358     -0.018878      0.000000
Ir      3.96413      0.00007      7.50000         0.005889      0.000722     -0.000000
Ir      9.27993     -3.06914      7.50000        -0.003616      0.005106     -0.000000
Ir      9.28005      3.06908      7.50000        -0.002561     -0.005372     -0.000000
Ir      7.29792      6.50208      7.50000        -0.005889     -0.000722     -0.000000
Ir      1.98212      9.57129      7.50000         0.003616     -0.005106     -0.000000
Ir      1.98201      3.43307      7.50000         0.002561      0.005372     -0.000000
