152
# total energy = -1024.45253783 eVH     10.35389      5.87395      7.64558         0.485119      0.025430      0.753521
H     10.62451     15.10445      7.64558         0.066771     -0.201318      0.622415
H     10.62451      5.87395     13.33282         0.104059      0.148195     -0.588332
H     10.35389     15.10445     13.33282        -0.513509     -0.025138     -0.755671
H      7.64558     10.35389      5.87395         0.350344      0.026571      0.163210
H      7.64558     10.62451     15.10445         0.966766     -0.238765      0.059796
H     13.33282     10.62451      5.87395        -0.802925     -0.131275      0.153459
H     13.33282     10.35389     15.10445        -0.907839     -0.456114      0.218808
H      5.87395      7.64558     10.35389         0.158708      0.725701     -0.302972
H     15.10445      7.64558     10.62451        -0.142180      0.380355     -0.015137
H      5.87395     13.33282     10.62451         0.155495     -0.501445     -0.099508
H     15.10445     13.33282     10.35389        -0.090841     -1.176694      0.109971
H      5.87395     10.35389      7.64558         0.137880      0.166395      0.502977
H     15.10445     10.62451      7.64558         0.006158      0.110889      1.023332
H      5.87395     10.62451     13.33282         0.068332     -0.039410     -0.471589
H     15.10445     10.35389     13.33282        -0.191793     -0.134607     -0.416273
H     10.35389      7.64558      5.87395         0.084579      0.994929      0.221690
H     10.62451      7.64558     15.10445         0.001474      0.270695     -0.155791
H     10.62451     13.33282      5.87395        -0.085433     -0.392260      0.318850
H     10.35389     13.33282     15.10445        -0.432797     -0.565635      0.003048
H      7.64558      5.87395     10.35389         0.546342      0.083246     -0.115389
H      7.64558     15.10445     10.62451         0.958753     -0.199816     -0.210861
H     13.33282      5.87395     10.62451        -0.588872      0.086958     -0.068254
H     13.33282     15.10445     10.35389        -0.576819     -0.066249      0.263858
H     12.45634     12.45634     19.01126         0.237860      0.276726     -0.237107
H     19.01126     19.01126     19.01126        -0.248268     -0.249584     -0.242545
H     19.01126     12.45634     12.45634        -0.267408      0.264619      0.219363
H     12.45634     19.01126     12.45634         0.236609     -0.267086      0.240791
C     10.35284      5.61067      6.59456        -0.218792     -0.677831      0.083091
C     10.62556     15.36773      6.59456        -0.051002      0.378305     -0.842600
C     10.62556      5.61067     14.38384        -0.006793     -0.058812      0.724328
C     10.35284     15.36773     14.38384         0.208701      0.694569      0.164335
C      6.59456     10.35284      5.61067        -0.364556     -0.015334     -0.305046
C      6.59456     10.62556     15.36773        -1.112404      0.261913      0.283704
C     14.38384     10.62556      5.61067         0.440984      0.373802     -0.677030
C     14.38384     10.35284     15.36773         1.119293      0.048505      0.209631
C      5.61067      6.59456     10.35284        -0.437137     -0.372176      0.355812
C     15.36773      6.59456     10.62556         0.188435     -0.495785      0.009813
C      5.61067     14.38384     10.62556        -0.206310      0.540372     -0.010430
C     15.36773     14.38384     10.35284         0.307288      0.044636     -0.115916
C      5.61067     10.35284      6.59456        -0.333416     -0.084656     -0.989556
C     15.36773     10.62556      6.59456         0.896275     -0.343089     -0.953096
C      5.61067     10.62556     14.38384        -0.442785      0.029914      0.302296
C     15.36773     10.35284     14.38384         0.646897     -0.098243      1.043745
C     10.35284      6.59456      5.61067        -0.252241     -0.563489     -0.943373
C     10.62556      6.59456     15.36773         0.062258     -0.256034      0.049012
C     10.62556     14.38384      5.61067         0.060596      1.198115     -0.414199
C     10.35284     14.38384     15.36773         0.276415      0.176234      0.727322
C      6.59456      5.61067     10.35284        -0.193606     -0.740187      0.172304
C      6.59456     15.36773     10.62556        -1.260828      0.242996      0.183604
C     14.38384      5.61067     10.62556         1.086072     -0.299603      0.041308
C     14.38384     15.36773     10.35284        -0.455589      0.777809     -0.408063
C     10.40319      3.19606      7.29314        -0.036060      0.917767     -0.427951
C     10.35913      4.25547      6.23373         0.055412     -0.537694      0.531900
C      0.08601      7.29314      7.29314        -0.021250     -0.393142     -0.347667
C      0.13007      6.23373      6.23373        -0.024907      0.013776      0.097901
C      0.08601      3.19606      3.19606         0.010535      1.274496      0.196821
C      0.13007      4.25547      4.25547        -0.047118     -0.226617     -0.203701
C     10.40319      7.29314      3.19606        -0.013704     -1.056304      0.373747
C     10.35913      6.23373      4.25547         0.041999      0.485438     -0.665223
C      7.29314     10.40319      3.19606        -0.319106      0.028570      0.726217
C      6.23373     10.35913      4.25547         0.137684      0.058758     -0.099889
C      7.29314      0.08601      7.29314        -0.664302     -0.017842     -0.267636
C      6.23373      0.13007      6.23373         0.378218     -0.081815      0.564805
C      3.19606      0.08601      3.19606         1.003918     -0.006298      0.257068
C      4.25547      0.13007      4.25547        -0.171316     -0.037741     -0.526512
C      3.19606     10.40319      7.29314         0.357484     -0.008878     -0.924053
C      4.25547     10.35913      6.23373        -0.272600      0.090621      0.232907
C      3.19606      7.29314     10.40319         0.522162     -1.365552     -0.036909
C      4.25547      6.23373     10.35913        -0.565250      0.723531      0.102653
C      7.29314      7.29314      0.08601        -0.389369     -0.241618      0.003355
C      6.23373      6.23373      0.13007         0.157915      0.153954     -0.001893
C      3.19606      3.19606      0.08601         0.267622      0.241571     -0.016705
C      4.25547      4.25547      0.13007        -0.124708     -0.051850      0.005464
C      7.29314      3.19606     10.40319        -0.397390      0.617930      0.006751
C      6.23373      4.25547     10.35913         1.060048     -0.147290      0.052228
O     10.43466      3.58206      8.50569        -0.023657      0.033939      0.438544
O     10.54374     17.39634      8.50569        -0.006088     -0.116409      0.468918
O     10.54374      3.58206     12.47271         0.040572     -0.106970     -0.130132
O     10.43466     17.39634     12.47271        -0.058481     -0.042651     -0.476724
O      8.50569     10.43466      3.58206         0.289164     -0.028289     -0.040089
O      8.50569     10.54374     17.39634         0.718473      0.028877     -0.205111
O     12.47271     10.54374      3.58206        -0.783334     -0.038060      0.148034
O     12.47271     10.43466     17.39634        -0.285609     -0.030300      0.033907
O      3.58206      8.50569     10.43466         0.159810      1.118857     -0.030109
O     17.39634      8.50569     10.54374        -0.101633      0.444391      0.059632
O      3.58206     12.47271     10.54374         0.067307     -0.395068      0.035420
O     17.39634     12.47271     10.43466        -0.157630     -0.669595     -0.010431
O      3.58206     10.43466      8.50569         0.067984     -0.068075      0.793966
O     17.39634     10.54374      8.50569        -0.062404      0.043781      0.330634
O      3.58206     10.54374     12.47271        -0.011955      0.037634     -0.240163
O     17.39634     10.43466     12.47271        -0.255773     -0.005012     -0.719131
O     10.43466      8.50569      3.58206         0.118641      0.836794      0.192211
O     10.54374      8.50569     17.39634         0.032425      0.595831     -0.141213
O     10.54374     12.47271      3.58206         0.004983     -1.011629      0.176261
O     10.43466     12.47271     17.39634        -0.044283     -0.955206     -0.213647
O      8.50569      3.58206     10.43466         0.566615      0.131134     -0.015864
O      8.50569     17.39634     10.54374         0.501659     -0.192916     -0.010544
O     12.47271      3.58206     10.54374        -0.481428      0.162940      0.059361
O     12.47271     17.39634     10.43466        -0.402789      0.035020     -0.007862
O     11.90042     11.90042     19.56718        -0.270065     -0.324904      0.257298
O     19.56718     19.56718     19.56718         0.277005      0.293465      0.284276
O     19.56718     11.90042     11.90042         0.301465     -0.300459     -0.202687
O     11.90042     19.56718     11.90042        -0.263409      0.284597     -0.249274
O      9.45224      1.03696      9.45224        -0.080893      0.049834     -0.058663
O      1.03696      9.45224      9.45224         0.042943     -0.153636     -0.113407
O      1.03696      1.03696      1.03696         0.024803      0.121165      0.196011
O      9.45224      9.45224      1.03696        -0.069880     -0.086754      0.117360
Zr     10.48920      2.52580     10.48920        -0.051180     -0.127166     -0.167323
Zr     10.48920     18.45260     10.48920         0.007339      0.214353     -0.026546
Zr     10.48920     10.48920      2.52580        -0.165627     -0.194564     -0.511876
Zr     10.48920     10.48920     18.45260         0.009988     -0.029768      0.432819
Zr      2.52580     10.48920     10.48920        -0.371249      0.311007      0.169210
Zr     18.45260     10.48920     10.48920         0.204608      0.067853     -0.203155
Pd      8.27623      9.65598     13.27275        -0.003225     -0.016105     -0.016305
Pd     10.47733      9.42498     10.20111        -0.032382     -0.003812     -0.004967
Pd     12.96608      8.78847     12.47948         0.005444      0.004628      0.005889
Pd     10.29597     10.83610     15.07049        -0.005553     -0.006104     -0.008312
Pd     12.75696     11.36893     13.61842         0.001089      0.016516     -0.006576
Pd     14.84829     10.55325     11.35807         0.002554     -0.005087     -0.000300
Pd      6.90137      7.44862     12.30413        -0.012911     -0.001718     -0.002381
Pd      9.20652      7.17118      9.46933        -0.016592      0.006339     -0.001369
Pd      9.59365      7.53503     12.22321        -0.010316      0.010470      0.007415
Pd     11.75283      7.06389     10.79785         0.000658     -0.006227      0.003989
Pd     11.60911      7.81819      8.25789         0.020626      0.007758     -0.006883
Pd      7.17660     11.65550     11.52762        -0.004593      0.007614     -0.005922
Pd      9.27318     14.31086      9.24359        -0.002057     -0.002374     -0.000204
Pd      8.11183     12.29771     14.01472         0.006526      0.002325     -0.009176
Pd     14.22029     14.15990      8.35762         0.001198      0.003291      0.007414
Pd     11.72429     13.26905      8.80136        -0.001109      0.004361     -0.001420
Pd     14.09779     11.58641      9.02057        -0.011290     -0.004419      0.006520
Pd      8.67942     13.97882     11.98546        -0.007067     -0.000961      0.013110
Pd     12.22242     14.02203     13.92058        -0.007513     -0.022977     -0.008552
Pd     11.39718     14.13536     11.28289         0.012711      0.001275      0.006703
Pd     13.99717     13.23468     12.09221        -0.006641      0.005452      0.009586
Pd     12.26194     11.47720     10.92827        -0.000882      0.007279      0.006554
Pd     13.00110     12.58450      6.60489        -0.006473     -0.001906     -0.006652
Pd     13.95187      8.83796      7.57925        -0.020806     -0.001242      0.022760
Pd      6.95928      8.43170      8.39031         0.016694     -0.009298     -0.008473
Pd      5.55117     10.00876     10.07103        -0.012092     -0.007077      0.002843
Pd      9.38005      9.44334      7.44217        -0.002293     -0.001875      0.008059
Pd      8.47268      6.95050      6.87037        -0.000975      0.000323      0.008088
Pd      9.67133     11.94072     10.50944        -0.008406      0.000124     -0.002849
Pd     11.77435     10.60180      8.06857        -0.003172     -0.015273      0.000592
Pd     11.79117      8.93586      5.85289        -0.010166     -0.005210      0.006735
Pd     10.61108     11.33323      5.73692        -0.012410     -0.001103      0.005879
Ir     10.71460      9.86016     12.70635        -0.008010     -0.007825      0.007221
Ir     13.12731      9.22293      9.95360         0.019452     -0.012783     -0.029202
Ir     10.46353     12.31413     12.88644        -0.003198      0.007986      0.030383
Ir      7.76004     10.94039      9.06969        -0.001299      0.011552     -0.021610
Ir      9.55226     12.04829      7.95363        -0.001825     -0.001120      0.009295
Ir      7.99962      9.14778     10.74328         0.017654     -0.007847      0.031881
