152
# total energy = -1059.41385799 eVH     10.35389      5.87395      7.64558        -0.137253     -0.021238      1.083846
H     10.62451     15.10445      7.64558        -0.190054     -0.088801      0.963897
H     10.62451      5.87395     13.33282        -0.223554      0.078647     -0.819360
H     10.35389     15.10445     13.33282        -0.005934     -0.258118     -0.874592
H      7.64558     10.35389      5.87395         0.911201     -0.062900      0.218868
H      7.64558     10.62451     15.10445         0.352260     -0.070827     -0.087382
H     13.33282     10.62451      5.87395        -0.741305      0.042110      0.194276
H     13.33282     10.35389     15.10445        -0.312392      0.012699     -0.077116
H      5.87395      7.64558     10.35389         0.087762      0.387926     -0.101741
H     15.10445      7.64558     10.62451         0.130511      0.668690     -0.171634
H      5.87395     13.33282     10.62451        -0.048627     -1.126532      0.124637
H     15.10445     13.33282     10.35389        -0.026325     -0.327198     -0.003649
H      5.87395     10.35389      7.64558         0.306965      0.086504      0.424728
H     15.10445     10.62451      7.64558        -0.196150     -0.138981      0.596472
H      5.87395     10.62451     13.33282        -0.107152      0.593612     -0.454036
H     15.10445     10.35389     13.33282         0.133675     -0.358937     -0.698566
H     10.35389      7.64558      5.87395         0.046414      0.554414      0.369518
H     10.62451      7.64558     15.10445         0.237129      0.911323     -0.017289
H     10.62451     13.33282      5.87395         0.074422     -0.494636      0.205205
H     10.35389     13.33282     15.10445         0.101714     -0.365045     -0.102773
H      7.64558      5.87395     10.35389         0.361780      0.076485     -0.081484
H      7.64558     15.10445     10.62451         0.385078     -0.066875      0.200391
H     13.33282      5.87395     10.62451        -0.286900      0.084139     -0.015079
H     13.33282     15.10445     10.35389        -0.651104     -0.074540      0.117005
H     12.45634     12.45634     19.01126         0.253805      0.267035     -0.230688
H     19.01126     19.01126     19.01126        -0.240508     -0.278151     -0.243404
H     19.01126     12.45634     12.45634        -0.254935      0.262518      0.241608
H     12.45634     19.01126     12.45634         0.279995     -0.236955      0.239310
C     10.35284      5.61067      6.59456         0.399603     -0.339329     -1.419497
C     10.62556     15.36773      6.59456        -0.076431      0.524283     -0.770978
C     10.62556      5.61067     14.38384         0.439219     -0.490762      0.888789
C     10.35284     15.36773     14.38384        -0.172048      0.210289      1.152506
C      6.59456     10.35284      5.61067        -1.378947      0.058323     -0.281980
C      6.59456     10.62556     15.36773        -0.668263      0.063779      0.304409
C     14.38384     10.62556      5.61067         1.044808     -0.061301     -0.503597
C     14.38384     10.35284     15.36773         0.509457     -0.072985      0.273882
C      5.61067      6.59456     10.35284        -0.334363     -0.500865      0.037795
C     15.36773      6.59456     10.62556         0.311027     -1.277315      0.059970
C      5.61067     14.38384     10.62556        -0.014452      1.226726     -0.234573
C     15.36773     14.38384     10.35284         0.528874      0.656328     -0.021452
C      5.61067     10.35284      6.59456        -0.391472     -0.165984     -0.945318
C     15.36773     10.62556      6.59456         0.421880      0.081647     -0.933696
C      5.61067     10.62556     14.38384        -0.464555     -0.217677      1.332746
C     15.36773     10.35284     14.38384         0.353039      0.069466      1.468135
C     10.35284      6.59456      5.61067        -0.067392     -0.904848     -0.710902
C     10.62556      6.59456     15.36773        -0.181360     -0.922798      0.373295
C     10.62556     14.38384      5.61067        -0.359114      0.450359     -0.667353
C     10.35284     14.38384     15.36773        -0.125072      0.741989      0.416613
C      6.59456      5.61067     10.35284        -0.373920     -0.302529      0.125310
C      6.59456     15.36773     10.62556        -0.548481      0.600002      0.033927
C     14.38384      5.61067     10.62556         0.430952     -0.485286     -0.004825
C     14.38384     15.36773     10.35284         1.158262      0.620343     -0.053959
C     10.40319      3.19606      7.29314         0.001014      0.560751     -0.350728
C     10.35913      4.25547      6.23373        -0.044816     -0.474013      0.357175
C      0.08601      7.29314      7.29314        -0.028846     -0.277606     -0.495597
C      0.13007      6.23373      6.23373        -0.107542      0.833639      0.098612
C      0.08601      3.19606      3.19606        -0.004098      0.656485      0.284049
C      0.13007      4.25547      4.25547         0.003706     -0.324314     -0.392398
C     10.40319      7.29314      3.19606        -0.058525     -0.910127      0.504100
C     10.35913      6.23373      4.25547        -0.055832      0.405115     -0.140836
C      7.29314     10.40319      3.19606        -0.908128     -0.047889      0.147796
C      6.23373     10.35913      4.25547         0.264355      0.083717     -0.419780
C      7.29314      0.08601      7.29314        -0.368536      0.048619     -0.842269
C      6.23373      0.13007      6.23373         0.207423      0.129280      0.182149
C      3.19606      0.08601      3.19606         0.606231      0.016383      0.243429
C      4.25547      0.13007      4.25547        -0.159979     -0.019722     -0.290161
C      3.19606     10.40319      7.29314         0.325318     -0.023709     -0.890398
C      4.25547     10.35913      6.23373        -0.184268     -0.092343      0.126746
C      3.19606      7.29314     10.40319         0.586843     -0.378530     -0.003519
C      4.25547      6.23373     10.35913        -0.198308      0.152862      0.026299
C      7.29314      7.29314      0.08601        -0.378438     -0.398238     -0.017857
C      6.23373      6.23373      0.13007         0.312387      0.280953     -0.006079
C      3.19606      3.19606      0.08601         0.295856      0.466221     -0.022567
C      4.25547      4.25547      0.13007        -0.476267     -0.217628     -0.045190
C      7.29314      3.19606     10.40319        -0.281811      0.632445     -0.017501
C      6.23373      4.25547     10.35913        -0.013093     -0.224312      0.047230
O     10.43466      3.58206      8.50569        -0.030896      0.132735      0.360090
O     10.54374     17.39634      8.50569         0.098471     -0.155821      0.609917
O     10.54374      3.58206     12.47271         0.023665      0.104839     -0.380120
O     10.43466     17.39634     12.47271         0.091139     -0.099877     -0.378176
O      8.50569     10.43466      3.58206         0.743983     -0.093784      0.118795
O      8.50569     10.54374     17.39634         0.334903      0.044396     -0.010946
O     12.47271     10.54374      3.58206        -0.660148      0.092517      0.203203
O     12.47271     10.43466     17.39634        -0.284354      0.003880      0.015924
O      3.58206      8.50569     10.43466         0.068163      0.451007     -0.038668
O     17.39634      8.50569     10.54374        -0.058138      0.466985      0.051704
O      3.58206     12.47271     10.54374         0.097850     -0.560239      0.021240
O     17.39634     12.47271     10.43466        -0.177391     -0.741817     -0.070576
O      3.58206     10.43466      8.50569         0.244965     -0.054957      0.831007
O     17.39634     10.54374      8.50569        -0.235768      0.095684      0.794128
O      3.58206     10.54374     12.47271         0.024760     -0.019989     -0.299354
O     17.39634     10.43466     12.47271         0.041173     -0.012412     -0.213883
O     10.43466      8.50569      3.58206        -0.149658      0.607799      0.040398
O     10.54374      8.50569     17.39634         0.045603      0.454294     -0.113239
O     10.54374     12.47271      3.58206         0.098180     -0.663391      0.155732
O     10.43466     12.47271     17.39634        -0.059680     -0.614491     -0.209136
O      8.50569      3.58206     10.43466         0.380145      0.027536     -0.029306
O      8.50569     17.39634     10.54374         0.633198     -0.138184      0.052788
O     12.47271      3.58206     10.54374        -0.538423      0.134527      0.029291
O     12.47271     17.39634     10.43466        -0.617823     -0.164067      0.004559
O     11.90042     11.90042     19.56718        -0.282257     -0.317213      0.245346
O     19.56718     19.56718     19.56718         0.288319      0.328178      0.286168
O     19.56718     11.90042     11.90042         0.294591     -0.319587     -0.239834
O     11.90042     19.56718     11.90042        -0.313472      0.240383     -0.213316
O      9.45224      1.03696      9.45224        -0.079984      0.071893     -0.088692
O      1.03696      9.45224      9.45224         0.082413     -0.102050     -0.049176
O      1.03696      1.03696      1.03696         0.055247      0.023680      0.120661
O      9.45224      9.45224      1.03696        -0.026251     -0.105039      0.141925
Zr     10.48920      2.52580     10.48920         0.057773     -0.051773      0.042770
Zr     10.48920     18.45260     10.48920        -0.182954      0.247731     -0.291430
Zr     10.48920     10.48920      2.52580         0.068612      0.263204     -0.368913
Zr     10.48920     10.48920     18.45260        -0.015609     -0.169889      0.148218
Zr      2.52580     10.48920     10.48920        -0.202104      0.145805      0.189714
Zr     18.45260     10.48920     10.48920         0.212518     -0.127105      0.164456
Pd      9.32639     14.11283      9.69084        -0.005229      0.013109     -0.178530
Pd      8.72356     13.54128     13.09383        -0.065843      0.120660     -0.023445
Pd     11.89831     14.51025      8.79823         0.035001     -0.068741      0.022426
Pd     12.86626     12.86844     10.49204        -0.007265     -0.052928      0.070063
Pd     12.26978      7.13805     12.81725        -0.011480      0.008445     -0.110074
Pd     11.33730     14.70972     11.68686        -0.035568      0.012186     -0.039456
Pd     10.27436     12.29460     11.29912        -0.097374      0.091128     -0.046263
Pd     13.41137     12.17971      7.91834         0.041288     -0.061289      0.036897
Pd     11.33863     11.50153      6.16449         0.066938      0.027957     -0.012577
Pd      7.75265      8.51347      7.71214         0.084188      0.071509     -0.088769
Pd      8.68762     11.72180      7.03428         0.098536      0.028069     -0.056020
Pd     10.24607      9.50359      8.34031         0.034708     -0.055811     -0.103456
Pd      8.56897     14.41917      7.15635        -0.075233      0.026948     -0.171509
Pd     12.19332      9.04047      6.72006         0.089918     -0.008493     -0.133645
Pd      9.59825      9.48507      5.75220         0.084008      0.061704     -0.113852
Pd      6.70461      9.52265     12.08223         0.116028     -0.007470      0.082084
Pd     12.30638      6.61967      7.87554        -0.057921     -0.000165     -0.082011
Pd      5.99157     10.54372      9.62246        -0.018428      0.007435      0.113306
Pd      7.53042      7.12284     12.74479        -0.023322     -0.055243      0.128281
Ir     11.94297      9.72522     13.09416        -0.024122     -0.049802     -0.087103
Ir     13.71067      8.86147     11.45414        -0.059967      0.108487     -0.041159
Ir      9.50347      8.67103     13.70541        -0.032191      0.014809      0.017598
Ir     10.52192     11.03788     14.67474         0.135970     -0.050847      0.147641
Ir      7.28995     12.08875     11.43371         0.094400     -0.016412      0.069353
Ir     14.86158     10.72169      9.90635        -0.108845     -0.018314      0.105270
Ir     12.28966     10.45867      9.70871        -0.062720     -0.056204     -0.019972
Ir      8.72027     10.89257     13.00696        -0.000301      0.170493      0.019236
Ir     10.25530      9.73623     11.31177        -0.003763      0.072601     -0.020787
Ir     13.83733     11.26361     12.14050         0.049316      0.040408      0.160250
Ir     11.93954     12.38388     13.12334        -0.092762     -0.034325      0.003945
Ir      8.55039     11.10576      9.54707         0.073243     -0.131242     -0.089828
Ir     11.73202      7.93925     10.06714        -0.064822     -0.028942     -0.025030
Ir      7.11516     12.95650      8.76801         0.068417     -0.039035     -0.092988
Ir      9.57266      6.98565      9.06296        -0.079338     -0.020801     -0.053174
Ir      8.16528      8.68548     10.23228        -0.063968      0.021303     -0.039525
Ir     10.77987     12.10204      8.63305        -0.014543     -0.040499      0.005716
Ir      9.84017      7.22860     11.57999        -0.096715      0.016127      0.015629
Ir     13.75255      8.67578      8.72929        -0.057419     -0.038468     -0.004715
