38
# total energy = -217.13620394 eVPd     10.16766     14.16407     10.39920         0.040296      0.065264      0.047515
Pd     10.06092     13.60967     13.14904        -0.001991      0.138824      0.024594
Pd     12.45047     13.80869      9.09952         0.024797      0.094216     -0.096692
Pd     13.90129     12.01775     10.44380         0.058195      0.059449     -0.043718
Pd     10.85234      6.93168     13.25766         0.055708     -0.045373      0.107001
Pd     12.53788     13.91786     11.85894         0.028944      0.141129      0.053565
Pd     11.08658     11.70289     11.47700         0.009124      0.015733      0.004390
Pd     13.44854     11.63560      7.74337         0.119664      0.055661     -0.040729
Pd     11.08685     11.39968      6.27816         0.016719      0.033300     -0.110337
Pd      7.35480      8.82825      7.82109        -0.071927     -0.033811     -0.051882
Pd      8.60560     11.29274      7.45355         0.002696      0.009615     -0.129420
Pd      9.81270      9.22241      8.91626        -0.018821     -0.021015      0.001317
Pd     10.12501     13.60208      7.65309         0.035398      0.105377     -0.079004
Pd     12.24212      9.19734      7.46787        -0.040594     -0.039904     -0.124215
Pd      9.74013      9.02919      6.32349        -0.015652     -0.047931     -0.091898
Pd      6.38091     11.09701     11.77603        -0.115289      0.043051      0.013479
Pd     10.80006      6.88462      7.95150         0.025318     -0.076041     -0.104273
Pd      6.42732     11.10038      9.08123        -0.081643      0.018688     -0.040838
Pd      7.26177      8.98794     13.26830        -0.186112     -0.057750      0.055525
Ir     11.97198      9.33040     13.08126         0.042225      0.068994      0.046114
Ir     13.07191      7.38726     11.75356         0.161096     -0.121359      0.114093
Ir      9.70008      9.22858     14.27063         0.021056     -0.051965     -0.098373
Ir     11.01510     11.40013     14.25398         0.112318      0.063069      0.090464
Ir      7.96764     13.27021     11.56756        -0.006229      0.034079     -0.003789
Ir     14.30429      9.61558      9.17518        -0.028870     -0.055865      0.066409
Ir     12.04737      9.55807     10.26752         0.090239      0.007878     -0.133654
Ir      8.73809     11.25709     12.99897         0.057582      0.014276      0.087799
Ir      9.81184      9.31882     11.64785        -0.014002     -0.079585      0.123044
Ir     14.16811      9.69916     11.69105         0.005658     -0.070712      0.115362
Ir     13.21561     11.63792     12.99794        -0.026043     -0.125635      0.108705
Ir      8.78932     11.32309     10.20851        -0.067733      0.086175      0.050749
Ir     10.72678      7.11305     10.60721        -0.010613      0.030334     -0.080919
Ir      7.99189     13.37132      9.08554        -0.110876      0.017834      0.037107
Ir      8.48558      6.96172      9.35063        -0.082030     -0.165198     -0.013334
Ir      7.50966      8.98935     10.50852        -0.003176     -0.068581      0.058391
Ir     11.10095     11.51802      8.89281        -0.033917     -0.023211      0.032427
Ir      8.52593      7.09267     11.89319        -0.061011     -0.030704      0.001812
Ir     13.06217      7.38674      9.28682         0.069498      0.011692      0.003213
