152
# total energy = -1004.07618623 eVH     10.35389      5.87395      7.64558        -0.277420      0.264173      0.552597
H     10.62451     15.10445      7.64558        -0.299732     -0.131447      0.725585
H     10.62451      5.87395     13.33282         0.478549      0.028174     -0.956574
H     10.35389     15.10445     13.33282         0.069624     -0.188383     -0.499474
H      7.64558     10.35389      5.87395         0.445333      0.061779      0.080959
H      7.64558     10.62451     15.10445         0.756080      0.579197     -0.060168
H     13.33282     10.62451      5.87395        -0.447781     -0.164185      0.336863
H     13.33282     10.35389     15.10445        -0.670387     -0.127932     -0.045103
H      5.87395      7.64558     10.35389         0.098821      1.582732      0.100855
H     15.10445      7.64558     10.62451        -0.083916      0.521412      0.094739
H      5.87395     13.33282     10.62451         0.205718     -0.786841      0.092587
H     15.10445     13.33282     10.35389         0.162243     -1.345930     -0.224442
H      5.87395     10.35389      7.64558         0.070403      0.091681      0.617700
H     15.10445     10.62451      7.64558        -0.222978      0.818896      1.328122
H      5.87395     10.62451     13.33282        -0.032278      0.452401     -1.382546
H     15.10445     10.35389     13.33282         0.205880     -0.085900     -0.837052
H     10.35389      7.64558      5.87395         0.271439      1.375806      0.201281
H     10.62451      7.64558     15.10445         0.599351      0.933764     -0.049252
H     10.62451     13.33282      5.87395        -0.600561     -0.797417      0.188829
H     10.35389     13.33282     15.10445        -0.087592     -0.500338     -0.259137
H      7.64558      5.87395     10.35389         1.182238     -0.278522     -0.322193
H      7.64558     15.10445     10.62451         0.674660     -0.205329     -0.009283
H     13.33282      5.87395     10.62451        -0.673631      0.098740      0.550555
H     13.33282     15.10445     10.35389        -0.319904     -0.064913     -0.079025
H     12.45634     12.45634     19.01126         0.268767      0.243632     -0.235827
H     19.01126     19.01126     19.01126        -0.265344     -0.275033     -0.213697
H     19.01126     12.45634     12.45634        -0.270501      0.255626      0.234063
H     12.45634     19.01126     12.45634         0.258257     -0.280653      0.226277
C     10.35284      5.61067      6.59456        -0.094645     -0.819737     -0.710172
C     10.62556     15.36773      6.59456         0.138348      0.372433     -0.239998
C     10.62556      5.61067     14.38384        -0.072714     -0.708025      0.642513
C     10.35284     15.36773     14.38384        -0.011045      0.217094      0.501977
C      6.59456     10.35284      5.61067        -0.690654      0.082180     -0.501455
C      6.59456     10.62556     15.36773        -0.905329      0.201475      0.770368
C     14.38384     10.62556      5.61067         0.994065      0.035032     -1.021301
C     14.38384     10.35284     15.36773         0.987130     -0.056800      0.548985
C      5.61067      6.59456     10.35284        -0.795125     -0.737975     -0.478138
C     15.36773      6.59456     10.62556         0.735972      0.033740     -0.192958
C      5.61067     14.38384     10.62556        -0.244193      0.964700     -0.039937
C     15.36773     14.38384     10.35284         0.326845      1.449335     -0.117663
C      5.61067     10.35284      6.59456        -0.320763     -0.019893     -0.753787
C     15.36773     10.62556      6.59456         0.401317     -0.419500     -0.897118
C      5.61067     10.62556     14.38384        -0.346187     -0.061201      1.101654
C     15.36773     10.35284     14.38384         0.260469     -0.000812      1.018827
C     10.35284      6.59456      5.61067        -0.024395     -1.079263     -0.296412
C     10.62556      6.59456     15.36773         0.007826     -0.823214      0.656926
C     10.62556     14.38384      5.61067         0.097068      0.909786     -0.487017
C     10.35284     14.38384     15.36773        -0.023122      0.652616      0.323936
C      6.59456      5.61067     10.35284        -0.716798     -1.137158      0.150561
C      6.59456     15.36773     10.62556        -0.716758      0.154408      0.073200
C     14.38384      5.61067     10.62556        -0.042553     -0.505304     -0.363716
C     14.38384     15.36773     10.35284         0.042927      0.582646     -0.056212
C     10.40319      3.19606      7.29314         0.000163      0.511896     -0.810152
C     10.35913      4.25547      6.23373        -0.009759     -0.461594      0.124283
C      0.08601      7.29314      7.29314        -0.036331     -1.045661     -0.272969
C      0.13007      6.23373      6.23373        -0.037441      0.422024      0.490036
C      0.08601      3.19606      3.19606         0.032342      1.143761      0.226276
C      0.13007      4.25547      4.25547         0.002543     -0.437935     -0.436734
C     10.40319      7.29314      3.19606        -0.020606     -0.637950      0.193696
C     10.35913      6.23373      4.25547        -0.048124      0.128353     -0.664772
C      7.29314     10.40319      3.19606        -0.410433      0.016253      0.228257
C      6.23373     10.35913      4.25547         0.195511      0.045383     -0.131015
C      7.29314      0.08601      7.29314        -1.216180     -0.076002     -0.410315
C      6.23373      0.13007      6.23373         0.665696     -0.186343      0.349737
C      3.19606      0.08601      3.19606         1.213103     -0.018253      0.248549
C      4.25547      0.13007      4.25547        -0.613095     -0.116764     -0.203626
C      3.19606     10.40319      7.29314         0.504501      0.030369     -0.257507
C      4.25547     10.35913      6.23373        -0.225462      0.044035      0.163427
C      3.19606      7.29314     10.40319         0.275439     -0.522467      0.056288
C      4.25547      6.23373     10.35913        -0.896751     -0.031766      0.151080
C      7.29314      7.29314      0.08601        -0.453324     -0.433172     -0.020068
C      6.23373      6.23373      0.13007         0.469384      0.274606      0.071536
C      3.19606      3.19606      0.08601         0.608943      0.471069     -0.020785
C      4.25547      4.25547      0.13007        -0.149925     -0.814287     -0.087703
C      7.29314      3.19606     10.40319        -0.351942      0.443317      0.052779
C      6.23373      4.25547     10.35913         0.548166     -0.678049      0.182356
O     10.43466      3.58206      8.50569         0.052574      0.246249      0.722845
O     10.54374     17.39634      8.50569         0.053957     -0.030199      0.318038
O     10.54374      3.58206     12.47271         0.003688     -0.031664     -0.261510
O     10.43466     17.39634     12.47271        -0.031165     -0.089045     -0.352347
O      8.50569     10.43466      3.58206         0.573570     -0.045325      0.151702
O      8.50569     10.54374     17.39634         0.877528     -0.081308     -0.157950
O     12.47271     10.54374      3.58206        -0.877833      0.144859      0.125212
O     12.47271     10.43466     17.39634        -0.575557      0.033076     -0.187747
O      3.58206      8.50569     10.43466         0.185270      0.627757     -0.043036
O     17.39634      8.50569     10.54374        -0.147310      0.617156      0.020815
O      3.58206     12.47271     10.54374         0.121068     -0.566364      0.043906
O     17.39634     12.47271     10.43466        -0.179623     -0.560472     -0.054852
O      3.58206     10.43466      8.50569         0.104194     -0.040643      0.387404
O     17.39634     10.54374      8.50569         0.061432      0.100466      0.330998
O      3.58206     10.54374     12.47271        -0.027170      0.027105     -0.223369
O     17.39634     10.43466     12.47271        -0.116276     -0.030204     -0.396776
O     10.43466      8.50569      3.58206        -0.045947      0.667049      0.187897
O     10.54374      8.50569     17.39634        -0.086540      0.810670     -0.145532
O     10.54374     12.47271      3.58206         0.132809     -0.919252      0.173090
O     10.43466     12.47271     17.39634        -0.000687     -0.403525     -0.039765
O      8.50569      3.58206     10.43466         0.550635      0.146028     -0.050874
O      8.50569     17.39634     10.54374         0.579587     -0.165172      0.018780
O     12.47271      3.58206     10.54374        -0.709114      0.123715      0.024110
O     12.47271     17.39634     10.43466        -0.509335     -0.128252     -0.030866
O     11.90042     11.90042     19.56718        -0.318650     -0.268530      0.250713
O     19.56718     19.56718     19.56718         0.292756      0.324716      0.209821
O     19.56718     11.90042     11.90042         0.343707     -0.287759     -0.247579
O     11.90042     19.56718     11.90042        -0.284639      0.349286     -0.215702
O      9.45224      1.03696      9.45224        -0.044940      0.101661     -0.115282
O      1.03696      9.45224      9.45224         0.070884     -0.031747     -0.100550
O      1.03696      1.03696      1.03696         0.059207      0.081825      0.113769
O      9.45224      9.45224      1.03696        -0.032137     -0.023682      0.104397
Zr     10.48920      2.52580     10.48920        -0.093256     -0.225468      0.171613
Zr     10.48920     18.45260     10.48920         0.026972      0.057384      0.056203
Zr     10.48920     10.48920      2.52580        -0.307901     -0.191160     -0.419918
Zr     10.48920     10.48920     18.45260         0.193653      0.030560      0.315498
Zr      2.52580     10.48920     10.48920        -0.130089     -0.056546     -0.072237
Zr     18.45260     10.48920     10.48920         0.103860     -0.036912      0.127610
Pd     12.63288      8.20687      9.73165        -0.060564      0.058077     -0.046197
Pd      6.86883      9.60770     10.51680        -0.007142      0.002194     -0.050469
Pd      6.89782     11.79378     11.96640         0.087251     -0.009223      0.023174
Pd     12.26711     13.57667      7.30062        -0.028910     -0.071095      0.072731
Pd     12.15505      7.95066      7.05215        -0.076291     -0.041514      0.088605
Pd      8.56560      7.43635      6.97434        -0.009278     -0.010041     -0.029741
Pd     11.63071     11.53241      5.67810        -0.074378     -0.009155      0.044216
Pd     14.54690      8.82909      7.85223        -0.061934     -0.023072     -0.024964
Pd      9.93329     11.79008      7.80598         0.029489      0.073803      0.082169
Pd      7.14961      7.11681     11.98096        -0.028649      0.063068      0.011318
Pd      6.44106      7.82300      8.45376        -0.010776     -0.024069      0.111229
Pd      7.27677      9.21222     13.49010         0.028363      0.051192      0.037407
Pd     11.29004      6.05746      9.22366         0.071856     -0.050728     -0.055462
Pd     10.01763      9.61566      6.25407        -0.101261     -0.010510     -0.071597
Pd      9.12188     13.85621      9.28227        -0.029608      0.068266     -0.006337
Pd     10.82278      7.05476     11.56134        -0.001117      0.110177      0.054800
Pd     10.33060      9.10307      8.87357         0.195079     -0.036278      0.112304
Pd      9.24181     11.42391     10.41227        -0.005817      0.091017     -0.070745
Pd      8.82027      7.24254      9.67200        -0.012702     -0.168854      0.085693
Pd      9.01749      7.23954     13.78287        -0.057937      0.014314      0.007533
Pd      9.17734      9.09023     11.59197        -0.012403     -0.137362     -0.021310
Pd     12.39756     10.60253      8.11031        -0.069952     -0.033855     -0.000404
Pd      6.94532     12.08816      9.27022         0.045122     -0.074642     -0.043924
Pd      8.06086      9.93982      8.15266        -0.138530      0.040601     -0.028397
Pd     13.96271      6.31361      8.47690        -0.034175     -0.022379      0.005325
Pd     13.28621      7.95104     12.23413        -0.011000      0.142779      0.020143
Pd      9.17882     11.24943     13.21749        -0.052415      0.071120     -0.020353
Pd     14.11352     12.46879      8.78146         0.055005     -0.016945      0.019866
Pd     13.20990     10.59578     12.84766         0.089698      0.085125      0.079115
Pd     14.24188     10.20065     10.29723         0.037009      0.082205      0.007055
Pd     11.57199     10.31156     10.89643        -0.004271     -0.044273     -0.134540
Pd     11.54735     12.89357      9.75217        -0.000492     -0.023579     -0.016653
Pd     13.72057     12.69425     11.46716        -0.043886      0.097574     -0.043183
Pd     11.27128     12.56906     12.31489         0.004669      0.059972      0.050156
Pd     11.42234     11.41191     14.70634         0.006835      0.035181      0.092003
Pd     11.13809      9.07341     13.36426        -0.066077     -0.038151     -0.070029
Pd      9.48837      9.61849     15.32803        -0.039092     -0.033638     -0.022237
Pd      8.91184     13.64858     11.95563        -0.010349      0.023785      0.000213
