8
# total energy = -53.48320196 eVC      1.14292     13.20654      0.00000         0.000000     -0.362689      0.000000
C      1.14292      4.07966     -0.00000         0.000000      0.362689      0.000000
O      1.14292      5.27050      0.00000         0.000000     -0.024453      0.000000
O      1.14292     12.01570     -0.00000         0.000000      0.024453      0.000000
O     -0.00000     13.97331      0.00000         0.000000      0.225613      0.000000
O      0.00000      3.31289     -0.00000         0.000000     -0.225613      0.000000
Ir     -0.00000      8.64310      0.00000         0.000000     -0.000000      0.000000
Ir     -0.00000      0.00000      0.00000         0.000000     -0.000000      0.000000
