152
# total energy = -1060.23912700 eVH     10.35389      5.87395      7.64558        -0.171507      0.124874      0.998386
H     10.62451     15.10445      7.64558         0.277509     -0.088708      0.809468
H     10.62451      5.87395     13.33282        -0.268268      0.084221     -0.731906
H     10.35389     15.10445     13.33282         0.143129     -0.278194     -0.774237
H      7.64558     10.35389      5.87395         0.891119     -0.242599      0.203709
H      7.64558     10.62451     15.10445         0.274880     -0.006914     -0.064274
H     13.33282     10.62451      5.87395        -0.830454      0.127621      0.192495
H     13.33282     10.35389     15.10445        -0.293664     -0.054926     -0.047916
H      5.87395      7.64558     10.35389         0.098834      0.425509     -0.000326
H     15.10445      7.64558     10.62451        -0.075001      0.471776      0.052184
H      5.87395     13.33282     10.62451         0.016359     -0.929843      0.099180
H     15.10445     13.33282     10.35389        -0.151391     -0.367050      0.017333
H      5.87395     10.35389      7.64558         0.316118      0.052955      0.361743
H     15.10445     10.62451      7.64558        -0.122062     -0.133877      0.609263
H      5.87395     10.62451     13.33282        -0.058514      0.429687     -0.661368
H     15.10445     10.35389     13.33282         0.167332     -0.486228     -0.934823
H     10.35389      7.64558      5.87395         0.011077      0.477297      0.329637
H     10.62451      7.64558     15.10445         0.352517      0.812637     -0.039237
H     10.62451     13.33282      5.87395         0.099814     -0.565493      0.200451
H     10.35389     13.33282     15.10445         0.084754     -0.330884     -0.148912
H      7.64558      5.87395     10.35389         0.381520      0.125201      0.056680
H      7.64558     15.10445     10.62451         0.379340     -0.130446      0.197388
H     13.33282      5.87395     10.62451        -0.313614      0.132598     -0.006218
H     13.33282     15.10445     10.35389        -0.666179     -0.161615      0.206570
H     12.45634     12.45634     19.01126         0.263464      0.272153     -0.220690
H     19.01126     19.01126     19.01126        -0.254241     -0.265280     -0.238890
H     19.01126     12.45634     12.45634        -0.245164      0.272265      0.236944
H     12.45634     19.01126     12.45634         0.293213     -0.229668      0.236397
C     10.35284      5.61067      6.59456         0.346257     -0.379490     -1.325415
C     10.62556     15.36773      6.59456        -0.236220      0.659975     -0.699795
C     10.62556      5.61067     14.38384         0.356755     -0.267093      0.731132
C     10.35284     15.36773     14.38384        -0.183249      0.316329      0.942151
C      6.59456     10.35284      5.61067        -1.326786      0.023148     -0.189879
C      6.59456     10.62556     15.36773        -0.610909      0.064688      0.349420
C     14.38384     10.62556      5.61067         1.409766     -0.174119     -0.629620
C     14.38384     10.35284     15.36773         0.340198     -0.130479      0.388199
C      5.61067      6.59456     10.35284        -0.263845     -0.631358     -0.019901
C     15.36773      6.59456     10.62556         0.408595     -0.842379     -0.032528
C      5.61067     14.38384     10.62556        -0.162618      1.105725     -0.177421
C     15.36773     14.38384     10.35284         0.460143      0.722351     -0.045591
C      5.61067     10.35284      6.59456        -0.362126     -0.128087     -0.729686
C     15.36773     10.62556      6.59456         0.338760      0.124489     -0.585221
C      5.61067     10.62556     14.38384        -0.338683     -0.145365      1.245374
C     15.36773     10.35284     14.38384         0.172219      0.212575      1.317737
C     10.35284      6.59456      5.61067        -0.065970     -0.681305     -0.436584
C     10.62556      6.59456     15.36773        -0.146845     -1.050688      0.371680
C     10.62556     14.38384      5.61067        -0.498448      0.377939     -0.720792
C     10.35284     14.38384     15.36773        -0.158841      0.652339      0.489112
C      6.59456      5.61067     10.35284        -0.548232     -0.325951      0.020455
C      6.59456     15.36773     10.62556        -0.294692      0.431370      0.082719
C     14.38384      5.61067     10.62556         0.443398     -0.317001      0.011619
C     14.38384     15.36773     10.35284         1.134405      0.438747     -0.119485
C     10.40319      3.19606      7.29314        -0.011305      0.916658     -0.362162
C     10.35913      4.25547      6.23373         0.014315     -0.332742      0.321993
C      0.08601      7.29314      7.29314        -0.018344     -0.467538     -0.509570
C      0.13007      6.23373      6.23373        -0.062028      0.811555      0.100365
C      0.08601      3.19606      3.19606        -0.009328      0.648566      0.246526
C      0.13007      4.25547      4.25547         0.068085     -0.253569     -0.553775
C     10.40319      7.29314      3.19606        -0.057845     -1.071278      0.705803
C     10.35913      6.23373      4.25547        -0.062806      0.326067     -0.186438
C      7.29314     10.40319      3.19606        -1.080103     -0.053774      0.229652
C      6.23373     10.35913      4.25547         0.382773      0.112751     -0.536262
C      7.29314      0.08601      7.29314        -0.631021      0.019918     -0.375147
C      6.23373      0.13007      6.23373         0.166496      0.097512      0.097810
C      3.19606      0.08601      3.19606         0.661622      0.008660      0.170132
C      4.25547      0.13007      4.25547        -0.195491     -0.079842     -0.330128
C      3.19606     10.40319      7.29314         0.509791     -0.029480     -0.948642
C      4.25547     10.35913      6.23373        -0.139225     -0.037950      0.157273
C      3.19606      7.29314     10.40319         0.688392     -0.375116      0.009374
C      4.25547      6.23373     10.35913        -0.119914      0.185169     -0.001078
C      7.29314      7.29314      0.08601        -0.451472     -0.285803     -0.011428
C      6.23373      6.23373      0.13007         0.154816      0.135300     -0.103520
C      3.19606      3.19606      0.08601         0.322370      0.532128     -0.015566
C      4.25547      4.25547      0.13007        -0.429500     -0.262456     -0.027971
C      7.29314      3.19606     10.40319        -0.290188      0.593379     -0.003080
C      6.23373      4.25547     10.35913         0.007482     -0.131955      0.020803
O     10.43466      3.58206      8.50569        -0.030414      0.039724      0.243995
O     10.54374     17.39634      8.50569         0.056069     -0.093314      0.535979
O     10.54374      3.58206     12.47271         0.032916      0.112254     -0.411513
O     10.43466     17.39634     12.47271         0.091965     -0.061667     -0.470784
O      8.50569     10.43466      3.58206         0.713257     -0.068692      0.024940
O      8.50569     10.54374     17.39634         0.683777      0.067573     -0.104826
O     12.47271     10.54374      3.58206        -0.617064      0.127640      0.211507
O     12.47271     10.43466     17.39634        -0.360629     -0.000250      0.030809
O      3.58206      8.50569     10.43466         0.021524      0.423770     -0.068723
O     17.39634      8.50569     10.54374        -0.056685      0.439191      0.059932
O      3.58206     12.47271     10.54374         0.118312     -0.618071     -0.000945
O     17.39634     12.47271     10.43466        -0.202155     -0.740443     -0.034054
O      3.58206     10.43466      8.50569         0.198629     -0.042129      0.785093
O     17.39634     10.54374      8.50569        -0.009146      0.064096      0.379190
O      3.58206     10.54374     12.47271         0.003606     -0.000066     -0.283713
O     17.39634     10.43466     12.47271         0.013409     -0.009874     -0.261081
O     10.43466      8.50569      3.58206        -0.109865      0.517081     -0.090446
O     10.54374      8.50569     17.39634         0.058196      0.553609     -0.071168
O     10.54374     12.47271      3.58206         0.095516     -0.588320      0.122183
O     10.43466     12.47271     17.39634        -0.043870     -0.818074     -0.320258
O      8.50569      3.58206     10.43466         0.400634      0.026924     -0.056307
O      8.50569     17.39634     10.54374         0.645059     -0.155170      0.037335
O     12.47271      3.58206     10.54374        -0.523816      0.117288      0.021541
O     12.47271     17.39634     10.43466        -0.660594     -0.124251      0.049462
O     11.90042     11.90042     19.56718        -0.274671     -0.293713      0.213960
O     19.56718     19.56718     19.56718         0.313816      0.311968      0.289404
O     19.56718     11.90042     11.90042         0.278410     -0.321327     -0.241469
O     11.90042     19.56718     11.90042        -0.314359      0.221218     -0.208495
O      9.45224      1.03696      9.45224        -0.092410      0.118203     -0.063730
O      1.03696      9.45224      9.45224         0.131469     -0.132370     -0.053909
O      1.03696      1.03696      1.03696         0.091855      0.070107      0.075674
O      9.45224      9.45224      1.03696        -0.072943     -0.139040      0.126427
Zr     10.48920      2.52580     10.48920         0.040520     -0.132726      0.168100
Zr     10.48920     18.45260     10.48920        -0.192630      0.265759     -0.340435
Zr     10.48920     10.48920      2.52580         0.132395      0.365097     -0.290479
Zr     10.48920     10.48920     18.45260        -0.085669     -0.250019      0.306242
Zr      2.52580     10.48920     10.48920        -0.274374      0.107868      0.272191
Zr     18.45260     10.48920     10.48920         0.182474     -0.142660     -0.045540
Pd      9.36154     14.41903      9.18910         0.018458      0.004464      0.123533
Pd      8.62380     13.62276     13.14591         0.029663      0.089475     -0.020637
Pd     12.08007     14.38901      8.79972        -0.196868      0.069386     -0.056827
Pd     12.62922     12.84344     10.77952        -0.156946     -0.200542      0.147703
Pd     12.15657      7.18348     12.66615        -0.115004     -0.127310      0.014843
Pd     11.13634     15.00845     11.38936        -0.113593     -0.060328     -0.022291
Pd      9.89584     12.70120     10.95906         0.250164      0.003362      0.372213
Pd     13.50335     12.24477      8.00146         0.163072     -0.106679      0.066000
Pd     11.54790     11.59402      6.13687        -0.087566      0.154657     -0.213844
Pd      7.90985      8.26710      7.47564         0.040347     -0.019938      0.061475
Pd      8.70482     11.74385      6.85291         0.005580      0.077099     -0.116333
Pd     10.21616      9.42875      8.19885        -0.060355      0.088244     -0.096181
Pd      8.46662     14.45282      6.72382        -0.042205     -0.018346     -0.154399
Pd     12.33725      9.12399      6.73637         0.082219     -0.031193      0.095942
Pd      9.77718      9.67375      5.56233        -0.006620     -0.114909      0.036680
Pd      6.89162      9.47952     12.17320        -0.063767     -0.146224     -0.107566
Pd     12.24462      6.78707      8.03340         0.006190     -0.265190     -0.323971
Pd      5.93029     10.53925      9.70210        -0.152894     -0.075768      0.106479
Pd      7.50947      7.19243     13.33517         0.113265     -0.010964      0.075633
Ir     11.64809      9.73880     13.07851        -0.194150     -0.124108      0.153365
Ir     13.50476      9.12108     11.51210        -0.112004     -0.035675      0.046893
Ir      9.38222      8.82954     14.04926        -0.171735      0.025534     -0.330333
Ir     10.48418     10.86277     15.09258        -0.100650     -0.123617     -0.217120
Ir      7.28221     11.99772     11.41406         0.039055      0.055331     -0.254228
Ir     14.58631     10.98285     10.24127         0.030568      0.184282      0.107865
Ir     12.18117     10.55076      9.56384        -0.020117      0.278380      0.055946
Ir      8.87535     11.02747     12.99374         0.445114     -0.056556      0.038666
Ir     10.12044      9.95356     11.06254        -0.161332     -0.090456      0.109751
Ir     13.57909     11.42395     12.63630        -0.113891      0.106940     -0.048601
Ir     11.28283     12.25499     13.09636        -0.002510      0.119868     -0.037669
Ir      8.47843     11.11649      9.33015         0.055571      0.092076      0.146692
Ir     11.59945      8.00984     10.17975        -0.165811      0.072964      0.107401
Ir      7.23314     13.04453      8.69083        -0.157353      0.387526     -0.116221
Ir      9.54327      6.94149      9.22980         0.021555      0.079819      0.195914
Ir      8.04329      8.77275     10.01227        -0.082802     -0.016421      0.128097
Ir     10.72189     12.14781      8.48083        -0.063760     -0.061805      0.123841
Ir      9.49435      7.63343     11.75230         0.163138      0.055673      0.038574
Ir     13.76192      8.75814      8.94859         0.263937     -0.075831     -0.045051
