152
# total energy = -1060.08802621 eVH     10.35389      5.87395      7.64558        -0.281273      0.043417      1.127082
H     10.62451     15.10445      7.64558         0.082364     -0.087117      0.927590
H     10.62451      5.87395     13.33282        -0.258333      0.076975     -0.786510
H     10.35389     15.10445     13.33282         0.095880     -0.302682     -0.865491
H      7.64558     10.35389      5.87395         0.930830     -0.136960      0.188372
H      7.64558     10.62451     15.10445         0.329163     -0.036267     -0.071854
H     13.33282     10.62451      5.87395        -0.860349      0.194829      0.204948
H     13.33282     10.35389     15.10445        -0.278250     -0.014328     -0.068324
H      5.87395      7.64558     10.35389         0.088216      0.416271     -0.009955
H     15.10445      7.64558     10.62451        -0.004983      0.491703     -0.030358
H      5.87395     13.33282     10.62451        -0.015060     -0.960911      0.081003
H     15.10445     13.33282     10.35389        -0.085742     -0.319659      0.004373
H      5.87395     10.35389      7.64558         0.285352      0.110585      0.404547
H     15.10445     10.62451      7.64558        -0.123646     -0.172186      0.665906
H      5.87395     10.62451     13.33282        -0.082716      0.463338     -0.617376
H     15.10445     10.35389     13.33282         0.242543     -0.619526     -0.832881
H     10.35389      7.64558      5.87395        -0.040294      0.486108      0.335599
H     10.62451      7.64558     15.10445         0.269044      0.784066     -0.027544
H     10.62451     13.33282      5.87395         0.127669     -0.574911      0.208379
H     10.35389     13.33282     15.10445         0.039248     -0.287990     -0.146323
H      7.64558      5.87395     10.35389         0.348165      0.101704      0.032909
H      7.64558     15.10445     10.62451         0.379019     -0.118739      0.168623
H     13.33282      5.87395     10.62451        -0.315479      0.131012     -0.029198
H     13.33282     15.10445     10.35389        -0.653534     -0.127955      0.148038
H     12.45634     12.45634     19.01126         0.255959      0.271378     -0.228480
H     19.01126     19.01126     19.01126        -0.246585     -0.268003     -0.245448
H     19.01126     12.45634     12.45634        -0.250773      0.269921      0.235542
H     12.45634     19.01126     12.45634         0.290355     -0.235541      0.234804
C     10.35284      5.61067      6.59456         0.400737     -0.417695     -1.424668
C     10.62556     15.36773      6.59456        -0.154647      0.592138     -0.648794
C     10.62556      5.61067     14.38384         0.381896     -0.337129      0.827347
C     10.35284     15.36773     14.38384        -0.223158      0.224262      1.075206
C      6.59456     10.35284      5.61067        -1.376290      0.021186     -0.229765
C      6.59456     10.62556     15.36773        -0.648546      0.063628      0.365616
C     14.38384     10.62556      5.61067         1.306770     -0.168439     -0.632947
C     14.38384     10.35284     15.36773         0.354092     -0.124746      0.356575
C      5.61067      6.59456     10.35284        -0.286402     -0.651920     -0.021852
C     15.36773      6.59456     10.62556         0.419964     -0.956795      0.032551
C      5.61067     14.38384     10.62556        -0.136742      1.164351     -0.185559
C     15.36773     14.38384     10.35284         0.469664      0.654563     -0.027367
C      5.61067     10.35284      6.59456        -0.372785     -0.099740     -0.733742
C     15.36773     10.62556      6.59456         0.405011      0.117144     -0.729269
C      5.61067     10.62556     14.38384        -0.387347     -0.171488      1.232396
C     15.36773     10.35284     14.38384         0.264171      0.191936      1.458028
C     10.35284      6.59456      5.61067        -0.055519     -0.722636     -0.593854
C     10.62556      6.59456     15.36773        -0.114765     -0.904244      0.351405
C     10.62556     14.38384      5.61067        -0.474985      0.405003     -0.714249
C     10.35284     14.38384     15.36773        -0.160130      0.620022      0.424817
C      6.59456      5.61067     10.35284        -0.516321     -0.332959      0.023801
C      6.59456     15.36773     10.62556        -0.370022      0.447643      0.059004
C     14.38384      5.61067     10.62556         0.446989     -0.368475      0.001958
C     14.38384     15.36773     10.35284         1.120295      0.497773     -0.073028
C     10.40319      3.19606      7.29314        -0.001686      0.688397     -0.337666
C     10.35913      4.25547      6.23373         0.011354     -0.422742      0.289100
C      0.08601      7.29314      7.29314        -0.014636     -0.368126     -0.505753
C      0.13007      6.23373      6.23373        -0.068176      0.859574      0.066932
C      0.08601      3.19606      3.19606        -0.003546      0.681768      0.265946
C      0.13007      4.25547      4.25547         0.033032     -0.268830     -0.544682
C     10.40319      7.29314      3.19606        -0.066835     -1.149996      0.583309
C     10.35913      6.23373      4.25547        -0.038759      0.362902     -0.197991
C      7.29314     10.40319      3.19606        -1.083749     -0.056571      0.194902
C      6.23373     10.35913      4.25547         0.366517      0.086661     -0.540680
C      7.29314      0.08601      7.29314        -0.435255      0.033079     -0.518079
C      6.23373      0.13007      6.23373         0.184060      0.127976      0.127826
C      3.19606      0.08601      3.19606         0.691714      0.024435      0.167335
C      4.25547      0.13007      4.25547        -0.173409     -0.051184     -0.354719
C      3.19606     10.40319      7.29314         0.385209     -0.025884     -0.897398
C      4.25547     10.35913      6.23373        -0.152082     -0.076289      0.100544
C      3.19606      7.29314     10.40319         0.606597     -0.398070      0.002806
C      4.25547      6.23373     10.35913        -0.113003      0.182476      0.001565
C      7.29314      7.29314      0.08601        -0.412506     -0.314648     -0.015037
C      6.23373      6.23373      0.13007         0.179604      0.186988     -0.066036
C      3.19606      3.19606      0.08601         0.289679      0.480057     -0.024235
C      4.25547      4.25547      0.13007        -0.405441     -0.231516     -0.034970
C      7.29314      3.19606     10.40319        -0.278509      0.593384     -0.010805
C      6.23373      4.25547     10.35913         0.005152     -0.110094      0.019817
O     10.43466      3.58206      8.50569        -0.028036      0.092201      0.319486
O     10.54374     17.39634      8.50569         0.062388     -0.129030      0.593627
O     10.54374      3.58206     12.47271         0.028048      0.106393     -0.393425
O     10.43466     17.39634     12.47271         0.090467     -0.047952     -0.389831
O      8.50569     10.43466      3.58206         0.709850     -0.062424      0.012398
O      8.50569     10.54374     17.39634         0.484733      0.057579     -0.081033
O     12.47271     10.54374      3.58206        -0.647182      0.116352      0.204632
O     12.47271     10.43466     17.39634        -0.283336     -0.003515      0.023402
O      3.58206      8.50569     10.43466         0.039579      0.459984     -0.068059
O     17.39634      8.50569     10.54374        -0.058727      0.452041      0.056787
O      3.58206     12.47271     10.54374         0.113922     -0.582979      0.001835
O     17.39634     12.47271     10.43466        -0.172835     -0.743036     -0.055959
O      3.58206     10.43466      8.50569         0.211627     -0.061484      0.787753
O     17.39634     10.54374      8.50569        -0.098370      0.075977      0.552914
O      3.58206     10.54374     12.47271        -0.000413     -0.003074     -0.268528
O     17.39634     10.43466     12.47271         0.037837     -0.012212     -0.227061
O     10.43466      8.50569      3.58206        -0.104931      0.567641     -0.113877
O     10.54374      8.50569     17.39634         0.067135      0.505602     -0.088114
O     10.54374     12.47271      3.58206         0.104733     -0.625403      0.133525
O     10.43466     12.47271     17.39634        -0.060762     -0.655536     -0.255773
O      8.50569      3.58206     10.43466         0.394866      0.025872     -0.037053
O      8.50569     17.39634     10.54374         0.631698     -0.155149      0.047680
O     12.47271      3.58206     10.54374        -0.508912      0.126725      0.035057
O     12.47271     17.39634     10.43466        -0.622239     -0.131842      0.040462
O     11.90042     11.90042     19.56718        -0.274230     -0.307211      0.232604
O     19.56718     19.56718     19.56718         0.304002      0.318924      0.299415
O     19.56718     11.90042     11.90042         0.284695     -0.324750     -0.232566
O     11.90042     19.56718     11.90042        -0.316086      0.229278     -0.202947
O      9.45224      1.03696      9.45224        -0.083214      0.085570     -0.069236
O      1.03696      9.45224      9.45224         0.102660     -0.116282     -0.048609
O      1.03696      1.03696      1.03696         0.083953      0.056105      0.096830
O      9.45224      9.45224      1.03696        -0.060986     -0.131837      0.130902
Zr     10.48920      2.52580     10.48920         0.032618     -0.089727      0.083603
Zr     10.48920     18.45260     10.48920        -0.172928      0.259547     -0.346770
Zr     10.48920     10.48920      2.52580         0.119853      0.355713     -0.345891
Zr     10.48920     10.48920     18.45260        -0.082649     -0.210242      0.192574
Zr      2.52580     10.48920     10.48920        -0.254352      0.129121      0.231950
Zr     18.45260     10.48920     10.48920         0.224118     -0.117372     -0.002791
Pd      9.39707     14.26754      9.35284        -0.001318      0.036824     -0.037186
Pd      8.61154     13.69112     12.99306        -0.016392     -0.017861      0.037281
Pd     12.03851     14.41536      8.73877         0.010560     -0.014299      0.005754
Pd     12.76539     12.82208     10.63212        -0.032454      0.007701      0.030784
Pd     12.14505      7.11783     12.61756        -0.003407      0.008907      0.003684
Pd     11.20908     14.84035     11.49814        -0.018101      0.035652     -0.023924
Pd     10.07346     12.50382     11.11499        -0.042384      0.052125     -0.042448
Pd     13.48406     12.13630      7.98117         0.013372      0.014041      0.004188
Pd     11.48081     11.55861      6.11319         0.007803      0.004243     -0.003912
Pd      7.86117      8.54715      7.54254         0.012538     -0.046892     -0.009989
Pd      8.73595     11.73244      6.88461        -0.006512      0.012310     -0.017928
Pd     10.30777      9.46750      8.14548        -0.008881     -0.003783      0.007359
Pd      8.50891     14.43754      6.83758        -0.011855      0.015253     -0.028961
Pd     12.36558      9.03506      6.58720        -0.001177      0.008057      0.012943
Pd      9.74425      9.61087      5.55396         0.000367      0.006268      0.002296
Pd      6.86007      9.45536     12.18324        -0.000901     -0.000005      0.000213
Pd     12.20866      6.69304      7.87842        -0.001459      0.013159      0.019174
Pd      5.94830     10.46068      9.72366        -0.013183     -0.004570     -0.003648
Pd      7.57396      7.14356     13.27716        -0.001656      0.024313      0.045498
Ir     11.79228      9.70399     13.05902        -0.044824      0.001010     -0.002284
Ir     13.57641      8.99788     11.44753        -0.017593      0.020117      0.010410
Ir      9.42416      8.82588     13.90390        -0.011593      0.020715      0.064355
Ir     10.55670     10.92399     14.87851        -0.022441     -0.016056      0.043711
Ir      7.28554     12.02440     11.36845        -0.019971     -0.009236     -0.011684
Ir     14.69044     10.84345     10.10405        -0.017346      0.030838      0.040057
Ir     12.19936     10.49055      9.65679        -0.001661      0.013658     -0.017610
Ir      8.77835     11.02996     13.01402         0.038590     -0.028078     -0.010473
Ir     10.14172      9.86591     11.21146        -0.006149      0.030160     -0.038985
Ir     13.75964     11.36742     12.41924        -0.042742      0.006299      0.049132
Ir     11.64048     12.29653     13.10816        -0.081623     -0.014179     -0.005756
Ir      8.52822     11.07927      9.38094        -0.014105      0.013918     -0.023771
Ir     11.59754      7.97926     10.07419         0.007197      0.011629      0.016274
Ir      7.24175     13.00772      8.69860         0.003771      0.022594     -0.000319
Ir      9.51951      7.00087      9.11946         0.004809     -0.010599      0.038765
Ir      8.06825      8.74997     10.09871        -0.008403      0.005483     -0.021347
Ir     10.75897     12.09776      8.53671        -0.007718      0.007533     -0.013669
Ir      9.56386      7.46298     11.67332        -0.012425      0.064768      0.040912
Ir     13.69902      8.70664      8.80744         0.006626      0.012755      0.017578
