26
# total energy = -169.64872020 eVH      0.37167      6.90915      7.50000         0.013769      0.009786      0.000000
H      2.82135      2.06362      7.50000        -0.009048      0.002631      0.000000
H      6.19155      6.71710      7.50000        -0.001377     -0.006044      0.000000
H      8.94231     -1.55430      7.50000        -0.013769     -0.009786      0.000000
H      6.49263      3.29123      7.50000         0.009048     -0.002631      0.000000
H      3.12243     -1.36226      7.50000         0.001377      0.006044      0.000000
C      8.50990      4.15762      7.50000        -0.004475     -0.003758     -0.000000
C      1.45310     -0.08403      7.50000         0.015411      0.002380      0.000000
C      8.70633     -3.71396      7.50000         0.004868     -0.001299      0.000000
C      0.80408      1.19723      7.50000         0.004475      0.003758     -0.000000
C      7.86088      5.43888      7.50000        -0.015411     -0.002380     -0.000000
C      0.60766      9.06881      7.50000        -0.004868      0.001299     -0.000000
C      8.20496     -2.36153      7.50000        -0.007718      0.010272      0.000000
C      7.55084      2.98271      7.50000         0.023862     -0.035902      0.000000
C      2.85831     -0.31143      7.50000         0.002251      0.004919      0.000000
C      1.10903      7.71638      7.50000         0.007718     -0.010272      0.000000
C      1.76314      2.37214      7.50000        -0.023862      0.035902      0.000000
C      6.45568      5.66628      7.50000        -0.002251     -0.004919     -0.000000
O      6.96050     -2.06949      7.50000         0.009122     -0.014843     -0.000000
O      7.81410      1.77970      7.50000        -0.006284      0.018330      0.000000
O      3.86967      0.52119      7.50000         0.003536      0.001447      0.000000
O      2.35348      7.42434      7.50000        -0.009122      0.014843     -0.000000
O      1.49988      3.57515      7.50000         0.006284     -0.018330      0.000000
O      5.44431      4.83366      7.50000        -0.003536     -0.001447      0.000000
Au      5.62612     -0.54748      7.50000        -0.001946     -0.000925     -0.000000
Au      3.68786      5.90233      7.50000         0.001946      0.000925     -0.000000
