35
# total energy = -301.54317744 eVC      6.68320     10.28851      7.64956         0.013473      0.007169      0.012784
C      8.06981      9.93658      7.57910        -0.001228     -0.045212     -0.018616
C      9.41906      5.70251      7.64917        -0.039727     -0.036710      0.014750
C      1.46405      5.35603      7.66854         0.012672      0.041033     -0.004485
C      4.19785      0.76770      7.63260        -0.014238      0.008257     -0.009427
C      2.81156      1.12072      7.56221        -0.000466      0.030185      0.005330
C      0.71242      4.16913      7.64321        -0.012342     -0.040627      0.013986
C      1.09907      2.79202      7.56923         0.045032      0.007422     -0.007221
C      5.36504      1.55030      7.64598         0.052179      0.020228      0.015628
C      5.51515      9.50643      7.66948        -0.027570     -0.003828      0.009055
C     10.17101      6.88974      7.64180        -0.016966      0.001293     -0.010217
C      9.78393      8.26651      7.57103        -0.048811      0.003642      0.013061
C      0.77134      6.58116      7.64925         0.001141     -0.027818     -0.001554
C      1.25296      7.92978      7.58014         0.075141      0.017568     -0.009986
C     10.11155      4.47737      7.64341        -0.003150      0.029752     -0.014545
C      9.62960      3.12885      7.56927        -0.070351     -0.020487     -0.007223
C      4.27312     10.16901      7.65001         0.030519      0.002644      0.006413
C      2.93644      9.65461      7.58133        -0.017822     -0.067085     -0.019961
C      6.60782      0.88774      7.63815        -0.046967      0.009539     -0.010943
C      7.94429      1.40257      7.56793         0.032285      0.067754     -0.012802
N      8.81267      0.31025      7.47657        -0.259154      0.009914      0.102231
N      0.14004      8.77060      7.48216         0.020014     -0.261304      0.102642
N      8.53097      8.69508      7.59798         0.019356      0.019791     -0.000328
N      2.35171      2.36236      7.58998        -0.020525     -0.020831      0.001420
N      2.06817     10.74660      7.48519         0.265194     -0.008605      0.104754
N     10.74340      2.28849      7.47826        -0.010789      0.258711      0.104632
N      2.56636      8.33194      7.60071        -0.040813      0.039240      0.000745
N      8.31588      2.72549      7.58545         0.036142     -0.034952     -0.002729
O      5.35356      2.88343      7.62932        -0.343574     -0.472788     -0.007615
O      5.52608      8.17361      7.67594         0.363208      0.467726     -0.002659
O      8.08649      5.67810      7.62358         0.449556      0.386303      0.002206
O      2.79608      5.37891      7.67613        -0.422560     -0.378202      0.002161
Zr      6.54186      4.45581      7.60180        -0.114212      0.095912     -0.027757
Zr      4.34276      6.59886      7.67510         0.098801     -0.106303      0.018135
Zr      0.02588     10.81094      6.88296        -0.003447      0.000670     -0.361865
