152
# total energy = -1003.19807511 eVH     10.35389      5.87395      7.64558        -0.086391      0.174585      0.851234
H     10.62451     15.10445      7.64558        -0.309262     -0.101211      1.118958
H     10.62451      5.87395     13.33282         0.040301     -0.003845     -0.944153
H     10.35389     15.10445     13.33282        -0.053315     -0.183037     -0.799240
H      7.64558     10.35389      5.87395         0.675962      0.165717     -0.117603
H      7.64558     10.62451     15.10445         0.862208      0.542817      0.012243
H     13.33282     10.62451      5.87395        -0.712730      0.038394      0.210384
H     13.33282     10.35389     15.10445        -0.651352     -0.175960      0.015460
H      5.87395      7.64558     10.35389        -0.100988      1.831301      0.320445
H     15.10445      7.64558     10.62451        -0.039674      1.054139     -0.066994
H      5.87395     13.33282     10.62451         0.197349     -0.838901      0.098208
H     15.10445     13.33282     10.35389         0.020905     -1.101952     -0.181290
H      5.87395     10.35389      7.64558        -0.456746      0.218839      1.133154
H     15.10445     10.62451      7.64558         0.111417      0.729205      1.561301
H      5.87395     10.62451     13.33282        -0.049818      0.467479     -1.244005
H     15.10445     10.35389     13.33282         0.816745      0.099591     -1.046349
H     10.35389      7.64558      5.87395         0.390468      1.406374     -0.063182
H     10.62451      7.64558     15.10445         0.553466      1.086662     -0.012991
H     10.62451     13.33282      5.87395        -0.425560     -0.799740      0.074182
H     10.35389     13.33282     15.10445        -0.100778     -0.432258     -0.152294
H      7.64558      5.87395     10.35389         1.076231     -0.167538     -0.206199
H      7.64558     15.10445     10.62451         0.604802     -0.213524      0.012625
H     13.33282      5.87395     10.62451        -0.927129      0.052626      0.316400
H     13.33282     15.10445     10.35389        -0.365831     -0.104474     -0.036080
H     12.45634     12.45634     19.01126         0.265312      0.234418     -0.247046
H     19.01126     19.01126     19.01126        -0.265271     -0.259486     -0.227041
H     19.01126     12.45634     12.45634        -0.265898      0.260274      0.233124
H     12.45634     19.01126     12.45634         0.259889     -0.269679      0.227693
C     10.35284      5.61067      6.59456        -0.137025     -0.971969     -0.910562
C     10.62556     15.36773      6.59456         0.151869      0.434202     -0.812100
C     10.62556      5.61067     14.38384        -0.155698     -0.735730      1.042768
C     10.35284     15.36773     14.38384         0.057147      0.283728      0.851874
C      6.59456     10.35284      5.61067        -1.188473      0.164896     -0.812255
C      6.59456     10.62556     15.36773        -0.937676      0.190964      0.719405
C     14.38384     10.62556      5.61067         0.950809      0.130835     -0.851060
C     14.38384     10.35284     15.36773         1.288741      0.066935      0.720264
C      5.61067      6.59456     10.35284        -0.780670     -0.957517     -0.026636
C     15.36773      6.59456     10.62556         0.534757     -0.139220     -0.064870
C      5.61067     14.38384     10.62556        -0.407697      0.941389     -0.040079
C     15.36773     14.38384     10.35284         0.413726      1.306349     -0.053292
C      5.61067     10.35284      6.59456        -0.253160     -0.039323     -1.396957
C     15.36773     10.62556      6.59456         0.359559     -0.058706     -1.201971
C      5.61067     10.62556     14.38384        -0.435231     -0.010532      0.954315
C     15.36773     10.35284     14.38384         0.114382     -0.059872      1.552911
C     10.35284      6.59456      5.61067        -0.048916     -1.240616     -0.600244
C     10.62556      6.59456     15.36773        -0.034282     -0.889180      0.725799
C     10.62556     14.38384      5.61067        -0.028571      0.928925     -0.682294
C     10.35284     14.38384     15.36773        -0.028992      0.411156      0.337793
C      6.59456      5.61067     10.35284        -0.608690     -1.170166      0.136561
C      6.59456     15.36773     10.62556        -0.699713      0.480219      0.038688
C     14.38384      5.61067     10.62556         0.326647     -0.672056     -0.210399
C     14.38384     15.36773     10.35284         0.257691      0.513599     -0.028342
C     10.40319      3.19606      7.29314        -0.024736      0.310903     -0.964861
C     10.35913      4.25547      6.23373        -0.033790     -0.483293      0.155822
C      0.08601      7.29314      7.29314        -0.044652     -0.816868     -0.318645
C      0.13007      6.23373      6.23373         0.002303      0.389355      0.575897
C      0.08601      3.19606      3.19606        -0.009515      0.696231      0.458370
C      0.13007      4.25547      4.25547         0.012383     -0.554167     -0.375966
C     10.40319      7.29314      3.19606        -0.041441     -0.585745      0.230681
C     10.35913      6.23373      4.25547         0.019687      0.263809     -0.626847
C      7.29314     10.40319      3.19606        -0.467533     -0.002814      0.188684
C      6.23373     10.35913      4.25547         0.249046     -0.040845     -0.305770
C      7.29314      0.08601      7.29314        -0.902888     -0.084038     -0.328412
C      6.23373      0.13007      6.23373         0.602152     -0.215272      0.415159
C      3.19606      0.08601      3.19606         0.857071     -0.039305      0.259065
C      4.25547      0.13007      4.25547        -0.506230     -0.240006     -0.391208
C      3.19606     10.40319      7.29314         0.363347      0.005896     -0.173873
C      4.25547     10.35913      6.23373        -0.254669     -0.029271      0.315980
C      3.19606      7.29314     10.40319         0.308673     -0.451104      0.013568
C      4.25547      6.23373     10.35913        -0.878190      0.087723      0.084461
C      7.29314      7.29314      0.08601        -0.422259     -0.366645     -0.024066
C      6.23373      6.23373      0.13007         0.709985      0.074674      0.023161
C      3.19606      3.19606      0.08601         0.742857      0.359644     -0.022173
C      4.25547      4.25547      0.13007        -0.114914     -0.785719     -0.048840
C      7.29314      3.19606     10.40319        -0.475229      0.478599      0.004003
C      6.23373      4.25547     10.35913         0.361436     -0.769781      0.075678
O     10.43466      3.58206      8.50569         0.098931      0.274941      0.806935
O     10.54374     17.39634      8.50569         0.033583     -0.090942      0.339346
O     10.54374      3.58206     12.47271         0.059676      0.092638     -0.438712
O     10.43466     17.39634     12.47271        -0.034128     -0.114148     -0.365677
O      8.50569     10.43466      3.58206         0.592739     -0.054129      0.205262
O      8.50569     10.54374     17.39634         0.813378     -0.043582     -0.216399
O     12.47271     10.54374      3.58206        -0.793019      0.149927      0.261459
O     12.47271     10.43466     17.39634        -0.480051      0.005892     -0.189943
O      3.58206      8.50569     10.43466         0.189446      0.606605     -0.029431
O     17.39634      8.50569     10.54374        -0.153864      0.536370      0.035957
O      3.58206     12.47271     10.54374         0.091815     -0.447678      0.042076
O     17.39634     12.47271     10.43466        -0.154685     -0.578317     -0.032159
O      3.58206     10.43466      8.50569         0.158008     -0.020054      0.343029
O     17.39634     10.54374      8.50569        -0.024063      0.085187      0.314811
O      3.58206     10.54374     12.47271         0.057552      0.043349     -0.297405
O     17.39634     10.43466     12.47271        -0.110174     -0.028534     -0.307103
O     10.43466      8.50569      3.58206        -0.060644      0.641514      0.206216
O     10.54374      8.50569     17.39634        -0.068946      0.742588     -0.190324
O     10.54374     12.47271      3.58206         0.111288     -0.686169      0.166685
O     10.43466     12.47271     17.39634        -0.035542     -0.300677      0.004012
O      8.50569      3.58206     10.43466         0.644297      0.161627     -0.045192
O      8.50569     17.39634     10.54374         0.574670     -0.184798      0.013123
O     12.47271      3.58206     10.54374        -0.726649      0.117258      0.012834
O     12.47271     17.39634     10.43466        -0.543698     -0.132984     -0.034261
O     11.90042     11.90042     19.56718        -0.309181     -0.246386      0.264531
O     19.56718     19.56718     19.56718         0.299413      0.310665      0.235647
O     19.56718     11.90042     11.90042         0.333486     -0.287073     -0.248491
O     11.90042     19.56718     11.90042        -0.307273      0.344131     -0.233637
O      9.45224      1.03696      9.45224        -0.030002      0.112481     -0.092780
O      1.03696      9.45224      9.45224         0.054195     -0.024413     -0.099343
O      1.03696      1.03696      1.03696         0.038278      0.102261      0.096349
O      9.45224      9.45224      1.03696        -0.043077     -0.021564      0.106913
Zr     10.48920      2.52580     10.48920        -0.171251     -0.336038      0.151307
Zr     10.48920     18.45260     10.48920         0.082397      0.081069      0.057524
Zr     10.48920     10.48920      2.52580        -0.100844     -0.099220     -0.362267
Zr     10.48920     10.48920     18.45260         0.110444      0.028473      0.276700
Zr      2.52580     10.48920     10.48920        -0.110808     -0.140628     -0.024497
Zr     18.45260     10.48920     10.48920         0.094868     -0.004541      0.038395
Pd     12.05188      8.46092     10.19029         0.019980     -0.020357      0.048144
Pd      7.20953      9.65102     10.60756         0.019985      0.027954     -0.058189
Pd      7.10304     11.92895     11.93179         0.039940     -0.012069     -0.015933
Pd     12.02722     13.55975      7.59438         0.046979      0.075442      0.008578
Pd     11.57303      8.11425      7.51189        -0.031318     -0.018776      0.027813
Pd      8.76629      7.38667      7.10975         0.042025      0.062788     -0.016050
Pd     11.62227     11.45490      6.03464         0.078796     -0.075049     -0.032476
Pd     13.88716      9.22164      7.67990         0.126965     -0.076595     -0.027981
Pd      9.51084     11.94674      7.66307         0.102089     -0.031952      0.062514
Pd      7.14747      7.18048     12.01165        -0.050219      0.052757      0.051579
Pd      6.93579      7.57836      8.80503        -0.091495      0.001164      0.099662
Pd      7.40428      9.33180     13.45920        -0.056760      0.025262     -0.079485
Pd     11.36739      5.94744      9.23065         0.031764     -0.143279     -0.004442
Pd      9.74060      9.71489      6.22211         0.086730     -0.014206      0.056133
Pd      9.19814     14.13136      9.09155        -0.005838      0.036995      0.065007
Pd     11.36744      6.50600     11.80471        -0.057343     -0.036479     -0.013783
Pd      9.79897      9.32221      9.07924         0.067829     -0.023765      0.033049
Pd      9.28932     11.60669     10.30039        -0.026563     -0.062711      0.105139
Pd      9.26311      7.05180     10.29640        -0.063510     -0.022332     -0.156254
Pd      8.97626      7.21207     13.88198        -0.031929      0.077527     -0.155934
Pd      9.45284      9.15134     11.79332        -0.020111     -0.125732     -0.037110
Pd     11.90292     10.84712      8.62406         0.008120     -0.009829     -0.142199
Pd      7.06075     12.28852      9.18130        -0.015023      0.045627     -0.018249
Pd      7.65705      9.95758      7.98972         0.024044     -0.068084     -0.037184
Pd     13.80811      6.87035      8.73932         0.009924     -0.019560      0.126254
Pd     13.75649      7.68122     12.19969        -0.066111      0.032115     -0.006408
Pd      9.41179     11.45910     13.12072         0.005122      0.017634      0.026828
Pd     14.07988     12.33591      8.72686        -0.019176      0.014249      0.049177
Pd     13.45240     10.24270     12.73507         0.035411      0.052077      0.047744
Pd     14.13371     10.04112     10.21937        -0.012454      0.043902     -0.057738
Pd     11.48726     10.86972     11.34288        -0.046231     -0.025796     -0.026984
Pd     11.50681     13.29641     10.11782        -0.103331     -0.111145     -0.092328
Pd     13.71374     12.48363     11.41172         0.009403      0.045559     -0.028667
Pd     11.64802     13.28342     12.78728        -0.095248     -0.098624      0.019955
Pd     11.67254     11.24255     14.44508        -0.086379     -0.057949      0.038384
Pd     11.43021      8.69874     13.31976         0.091007      0.025933      0.066494
Pd      9.60585      9.67472     15.12550         0.042753     -0.026712     -0.107171
Pd      9.20137     13.78729     11.77371        -0.018129      0.027825     -0.039505
