152
# total energy = -1060.21204608 eVH     10.35389      5.87395      7.64558        -0.255638      0.111899      1.051462
H     10.62451     15.10445      7.64558         0.146580     -0.075105      0.873565
H     10.62451      5.87395     13.33282        -0.265905      0.077013     -0.759798
H     10.35389     15.10445     13.33282         0.106537     -0.295747     -0.805896
H      7.64558     10.35389      5.87395         0.897061     -0.211303      0.208606
H      7.64558     10.62451     15.10445         0.300200     -0.022172     -0.062406
H     13.33282     10.62451      5.87395        -0.869832      0.182952      0.210843
H     13.33282     10.35389     15.10445        -0.285799     -0.033000     -0.057418
H      5.87395      7.64558     10.35389         0.094576      0.422601     -0.009307
H     15.10445      7.64558     10.62451        -0.051819      0.442489     -0.003346
H      5.87395     13.33282     10.62451        -0.007837     -0.943320      0.083222
H     15.10445     13.33282     10.35389        -0.106558     -0.336714      0.006364
H      5.87395     10.35389      7.64558         0.319190      0.058644      0.367375
H     15.10445     10.62451      7.64558        -0.120619     -0.150686      0.637207
H      5.87395     10.62451     13.33282        -0.059571      0.445754     -0.615938
H     15.10445     10.35389     13.33282         0.217654     -0.597155     -0.896829
H     10.35389      7.64558      5.87395        -0.009972      0.486790      0.337171
H     10.62451      7.64558     15.10445         0.349662      0.801801     -0.006049
H     10.62451     13.33282      5.87395         0.137883     -0.563592      0.194709
H     10.35389     13.33282     15.10445         0.046630     -0.299105     -0.164872
H      7.64558      5.87395     10.35389         0.376041      0.117264      0.061687
H      7.64558     15.10445     10.62451         0.380340     -0.129766      0.184790
H     13.33282      5.87395     10.62451        -0.308785      0.136539     -0.011492
H     13.33282     15.10445     10.35389        -0.660453     -0.126186      0.157880
H     12.45634     12.45634     19.01126         0.261670      0.271790     -0.224448
H     19.01126     19.01126     19.01126        -0.249720     -0.267697     -0.242693
H     19.01126     12.45634     12.45634        -0.247322      0.272321      0.237299
H     12.45634     19.01126     12.45634         0.291373     -0.233337      0.235585
C     10.35284      5.61067      6.59456         0.383887     -0.409142     -1.339840
C     10.62556     15.36773      6.59456        -0.185745      0.624269     -0.658604
C     10.62556      5.61067     14.38384         0.363374     -0.278858      0.751217
C     10.35284     15.36773     14.38384        -0.196640      0.249749      0.994626
C      6.59456     10.35284      5.61067        -1.374924      0.029025     -0.211958
C      6.59456     10.62556     15.36773        -0.644412      0.064775      0.352695
C     14.38384     10.62556      5.61067         1.347886     -0.182943     -0.629998
C     14.38384     10.35284     15.36773         0.327187     -0.135292      0.362587
C      5.61067      6.59456     10.35284        -0.270107     -0.659667     -0.026370
C     15.36773      6.59456     10.62556         0.405875     -0.852195      0.008893
C      5.61067     14.38384     10.62556        -0.155785      1.149098     -0.196853
C     15.36773     14.38384     10.35284         0.491924      0.706317     -0.036268
C      5.61067     10.35284      6.59456        -0.365156     -0.110741     -0.768566
C     15.36773     10.62556      6.59456         0.384998      0.113455     -0.652415
C      5.61067     10.62556     14.38384        -0.386721     -0.154035      1.221328
C     15.36773     10.35284     14.38384         0.209218      0.229121      1.389299
C     10.35284      6.59456      5.61067        -0.069941     -0.722345     -0.513973
C     10.62556      6.59456     15.36773        -0.150680     -1.010593      0.372972
C     10.62556     14.38384      5.61067        -0.494816      0.370226     -0.731449
C     10.35284     14.38384     15.36773        -0.172265      0.732321      0.511220
C      6.59456      5.61067     10.35284        -0.559506     -0.330940      0.008646
C      6.59456     15.36773     10.62556        -0.339979      0.441745      0.068631
C     14.38384      5.61067     10.62556         0.435221     -0.307834      0.004983
C     14.38384     15.36773     10.35284         1.130108      0.474268     -0.095074
C     10.40319      3.19606      7.29314        -0.009818      0.821700     -0.330800
C     10.35913      4.25547      6.23373         0.017539     -0.355776      0.296456
C      0.08601      7.29314      7.29314        -0.024132     -0.401936     -0.497789
C      0.13007      6.23373      6.23373        -0.057027      0.860898      0.092222
C      0.08601      3.19606      3.19606        -0.009512      0.673631      0.260754
C      0.13007      4.25547      4.25547         0.051565     -0.262674     -0.549472
C     10.40319      7.29314      3.19606        -0.063808     -1.087647      0.630556
C     10.35913      6.23373      4.25547        -0.053824      0.324678     -0.182990
C      7.29314     10.40319      3.19606        -1.102786     -0.055549      0.214282
C      6.23373     10.35913      4.25547         0.384130      0.103403     -0.529951
C      7.29314      0.08601      7.29314        -0.521780      0.024165     -0.426407
C      6.23373      0.13007      6.23373         0.172325      0.112548      0.108849
C      3.19606      0.08601      3.19606         0.675588      0.015690      0.169676
C      4.25547      0.13007      4.25547        -0.179181     -0.061808     -0.348526
C      3.19606     10.40319      7.29314         0.407109     -0.026849     -0.947410
C      4.25547     10.35913      6.23373        -0.134256     -0.052420      0.123493
C      3.19606      7.29314     10.40319         0.638390     -0.389851      0.005739
C      4.25547      6.23373     10.35913        -0.115861      0.180680      0.007690
C      7.29314      7.29314      0.08601        -0.436760     -0.299540     -0.012876
C      6.23373      6.23373      0.13007         0.155571      0.143259     -0.075162
C      3.19606      3.19606      0.08601         0.309679      0.507900     -0.018944
C      4.25547      4.25547      0.13007        -0.412481     -0.248511     -0.028451
C      7.29314      3.19606     10.40319        -0.285256      0.601943     -0.007378
C      6.23373      4.25547     10.35913         0.012295     -0.109213      0.016265
O     10.43466      3.58206      8.50569        -0.025990      0.064374      0.275416
O     10.54374     17.39634      8.50569         0.064330     -0.112745      0.572896
O     10.54374      3.58206     12.47271         0.030816      0.107026     -0.409989
O     10.43466     17.39634     12.47271         0.096430     -0.061868     -0.432370
O      8.50569     10.43466      3.58206         0.739231     -0.070874      0.020096
O      8.50569     10.54374     17.39634         0.581303      0.060869     -0.109029
O     12.47271     10.54374      3.58206        -0.634533      0.117256      0.212830
O     12.47271     10.43466     17.39634        -0.310653      0.004179      0.033475
O      3.58206      8.50569     10.43466         0.030975      0.436757     -0.063081
O     17.39634      8.50569     10.54374        -0.054846      0.450622      0.057905
O      3.58206     12.47271     10.54374         0.107183     -0.601653      0.001638
O     17.39634     12.47271     10.43466        -0.189561     -0.746306     -0.047564
O      3.58206     10.43466      8.50569         0.210766     -0.052040      0.801770
O     17.39634     10.54374      8.50569        -0.052644      0.073872      0.457829
O      3.58206     10.54374     12.47271         0.001565     -0.003503     -0.269999
O     17.39634     10.43466     12.47271         0.033872     -0.010263     -0.238999
O     10.43466      8.50569      3.58206        -0.111362      0.512755     -0.100775
O     10.54374      8.50569     17.39634         0.055840      0.527487     -0.086859
O     10.54374     12.47271      3.58206         0.098589     -0.620611      0.127102
O     10.43466     12.47271     17.39634        -0.065169     -0.722810     -0.296427
O      8.50569      3.58206     10.43466         0.395757      0.021791     -0.049820
O      8.50569     17.39634     10.54374         0.645009     -0.152507      0.043160
O     12.47271      3.58206     10.54374        -0.525724      0.119527      0.024561
O     12.47271     17.39634     10.43466        -0.638478     -0.125085      0.042412
O     11.90042     11.90042     19.56718        -0.280740     -0.300723      0.217686
O     19.56718     19.56718     19.56718         0.311218      0.321861      0.293549
O     19.56718     11.90042     11.90042         0.280676     -0.325057     -0.238986
O     11.90042     19.56718     11.90042        -0.315355      0.226676     -0.203928
O      9.45224      1.03696      9.45224        -0.076580      0.093198     -0.081917
O      1.03696      9.45224      9.45224         0.104396     -0.110492     -0.064361
O      1.03696      1.03696      1.03696         0.082745      0.059253      0.088635
O      9.45224      9.45224      1.03696        -0.064401     -0.129901      0.131324
Zr     10.48920      2.52580     10.48920         0.048519     -0.102842      0.146926
Zr     10.48920     18.45260     10.48920        -0.187123      0.248848     -0.356233
Zr     10.48920     10.48920      2.52580         0.125918      0.369642     -0.324099
Zr     10.48920     10.48920     18.45260        -0.072752     -0.269477      0.270308
Zr      2.52580     10.48920     10.48920        -0.243780      0.124374      0.253261
Zr     18.45260     10.48920     10.48920         0.191590     -0.145234     -0.020108
Pd      9.35869     14.32809      9.27453         0.017706      0.047008      0.023514
Pd      8.59922     13.62770     13.07662         0.049984     -0.006056      0.043721
Pd     12.04420     14.40098      8.76003        -0.071400      0.027685     -0.000702
Pd     12.72316     12.86402     10.70853        -0.040623     -0.012497      0.047271
Pd     12.13506      7.19171     12.67519        -0.044859     -0.009507     -0.022859
Pd     11.15664     14.93480     11.43471        -0.033246      0.002075     -0.027817
Pd      9.99651     12.60432     11.05033        -0.022224     -0.020824      0.048793
Pd     13.47909     12.18408      7.98842         0.127507      0.027914     -0.005480
Pd     11.50882     11.56041      6.13094        -0.058663      0.026078     -0.123543
Pd      7.93452      8.34717      7.50937        -0.015015     -0.029027     -0.016804
Pd      8.72075     11.74987      6.84901        -0.028081      0.032204     -0.002976
Pd     10.28721      9.43920      8.16699        -0.040656      0.041123     -0.051147
Pd      8.49167     14.46106      6.77709        -0.039833     -0.022147     -0.083164
Pd     12.37586      9.04863      6.62633         0.022461      0.023354     -0.004996
Pd      9.73430      9.63213      5.56548         0.041603     -0.018982      0.037835
Pd      6.83712      9.45973     12.14592        -0.022520     -0.041717     -0.038301
Pd     12.20230      6.76349      7.98152        -0.015445     -0.120165     -0.073869
Pd      5.92551     10.50869      9.68989        -0.064480     -0.022049      0.031242
Pd      7.52476      7.21994     13.38298         0.138058      0.067194      0.001532
Ir     11.71300      9.77017     13.06840        -0.080521      0.001325      0.011093
Ir     13.54298      9.07863     11.48154        -0.085183     -0.033677      0.057737
Ir      9.42258      8.84786     14.01552        -0.125071     -0.086504      0.012622
Ir     10.49627     10.99420     14.93887         0.017856     -0.133324      0.065935
Ir      7.27539     12.00828     11.36886        -0.003925      0.025361     -0.121416
Ir     14.63800     10.92649     10.16623        -0.028213      0.080895      0.060946
Ir     12.16737     10.57332      9.63066         0.078835     -0.113807      0.139219
Ir      8.78575     10.99243     12.98985         0.095005      0.167588     -0.002216
Ir     10.11151      9.92942     11.13735         0.035399      0.048625      0.025193
Ir     13.68961     11.41669     12.52973        -0.018946      0.054157      0.027946
Ir     11.50232     12.33168     13.08236        -0.106923     -0.085885      0.033582
Ir      8.50458     11.09954      9.34334        -0.085457      0.191746     -0.028524
Ir     11.58656      8.02433     10.16179         0.017856      0.017342      0.051564
Ir      7.21924     13.02569      8.66685         0.014453      0.096468      0.007036
Ir      9.54144      6.95671      9.23534         0.037738     -0.021188      0.026304
Ir      8.05143      8.76768     10.04435        -0.092995     -0.053119      0.014188
Ir     10.71887     12.13440      8.49992        -0.070210      0.046313     -0.041857
Ir      9.50363      7.59574     11.75291         0.052183     -0.061291      0.080328
Ir     13.69486      8.78186      8.87717         0.104530     -0.000543     -0.022992
