152
# total energy = -1004.28166396 eVH     10.35389      5.87395      7.64558        -0.168976      0.221014      0.651586
H     10.62451     15.10445      7.64558        -0.261907     -0.134794      0.681444
H     10.62451      5.87395     13.33282         0.471830      0.033024     -0.986034
H     10.35389     15.10445     13.33282         0.064269     -0.191480     -0.539696
H      7.64558     10.35389      5.87395         0.415683      0.067536      0.114642
H      7.64558     10.62451     15.10445         0.775717      0.578207     -0.033159
H     13.33282     10.62451      5.87395        -0.450050     -0.024020      0.277029
H     13.33282     10.35389     15.10445        -0.731029     -0.183045      0.008483
H      5.87395      7.64558     10.35389         0.083289      1.914472      0.183868
H     15.10445      7.64558     10.62451        -0.094682      0.513025      0.177844
H      5.87395     13.33282     10.62451         0.211057     -0.713238      0.018181
H     15.10445     13.33282     10.35389         0.230973     -1.471322     -0.366299
H      5.87395     10.35389      7.64558         0.084841      0.064941      0.586336
H     15.10445     10.62451      7.64558        -0.185291      0.869120      1.349279
H      5.87395     10.62451     13.33282        -0.057388      0.448898     -1.307315
H     15.10445     10.35389     13.33282         0.137606     -0.170497     -0.765997
H     10.35389      7.64558      5.87395         0.274251      1.367751      0.158924
H     10.62451      7.64558     15.10445         0.546109      0.805871     -0.079206
H     10.62451     13.33282      5.87395        -0.590147     -0.829817      0.185045
H     10.35389     13.33282     15.10445        -0.160397     -0.535304     -0.307885
H      7.64558      5.87395     10.35389         1.133846     -0.260546     -0.116630
H      7.64558     15.10445     10.62451         0.750307     -0.208306     -0.028415
H     13.33282      5.87395     10.62451        -0.621889      0.117122      0.652445
H     13.33282     15.10445     10.35389        -0.400274     -0.029486     -0.145506
H     12.45634     12.45634     19.01126         0.273941      0.243423     -0.234471
H     19.01126     19.01126     19.01126        -0.266864     -0.272599     -0.214443
H     19.01126     12.45634     12.45634        -0.274165      0.252786      0.232880
H     12.45634     19.01126     12.45634         0.254053     -0.281333      0.228803
C     10.35284      5.61067      6.59456        -0.147190     -0.822422     -0.554540
C     10.62556     15.36773      6.59456         0.083664      0.365580     -0.254896
C     10.62556      5.61067     14.38384        -0.087447     -0.579353      0.683169
C     10.35284     15.36773     14.38384        -0.012711      0.244349      0.537124
C      6.59456     10.35284      5.61067        -0.665248      0.086802     -0.463370
C      6.59456     10.62556     15.36773        -1.000610      0.227236      0.727344
C     14.38384     10.62556      5.61067         0.813885      0.025492     -0.918014
C     14.38384     10.35284     15.36773         0.939318     -0.104510      0.460889
C      5.61067      6.59456     10.35284        -0.885425     -1.074321     -0.465578
C     15.36773      6.59456     10.62556         0.695100      0.055604     -0.254822
C      5.61067     14.38384     10.62556        -0.215729      0.824956      0.000693
C     15.36773     14.38384     10.35284         0.291469      1.443964     -0.029041
C      5.61067     10.35284      6.59456        -0.278699      0.012448     -0.755521
C     15.36773     10.62556      6.59456         0.389801     -0.364334     -0.938460
C      5.61067     10.62556     14.38384        -0.344944     -0.005058      1.112408
C     15.36773     10.35284     14.38384         0.368244     -0.047969      0.872833
C     10.35284      6.59456      5.61067        -0.026990     -1.033878     -0.365493
C     10.62556      6.59456     15.36773         0.063046     -0.712038      0.559387
C     10.62556     14.38384      5.61067         0.118203      0.992009     -0.427691
C     10.35284     14.38384     15.36773        -0.021408      0.850944      0.433190
C      6.59456      5.61067     10.35284        -0.688406     -1.290701      0.118924
C      6.59456     15.36773     10.62556        -0.841240      0.152961      0.099551
C     14.38384      5.61067     10.62556        -0.066324     -0.523903     -0.354433
C     14.38384     15.36773     10.35284         0.114025      0.662663     -0.071980
C     10.40319      3.19606      7.29314         0.008016      0.683480     -0.789745
C     10.35913      4.25547      6.23373         0.011241     -0.541498      0.107674
C      0.08601      7.29314      7.29314        -0.021017     -1.013967     -0.259969
C      0.13007      6.23373      6.23373        -0.047976      0.401213      0.407755
C      0.08601      3.19606      3.19606         0.042932      1.160621      0.217493
C      0.13007      4.25547      4.25547        -0.002184     -0.414610     -0.445892
C     10.40319      7.29314      3.19606        -0.009673     -0.579139      0.215064
C     10.35913      6.23373      4.25547        -0.019482      0.127311     -0.697855
C      7.29314     10.40319      3.19606        -0.405582      0.020437      0.261172
C      6.23373     10.35913      4.25547         0.213400      0.067849     -0.100317
C      7.29314      0.08601      7.29314        -1.168538     -0.079966     -0.365002
C      6.23373      0.13007      6.23373         0.643100     -0.191048      0.356010
C      3.19606      0.08601      3.19606         1.173187     -0.016702      0.294362
C      4.25547      0.13007      4.25547        -0.571077     -0.156115     -0.226882
C      3.19606     10.40319      7.29314         0.549031      0.031148     -0.254238
C      4.25547     10.35913      6.23373        -0.219752      0.076575      0.203682
C      3.19606      7.29314     10.40319         0.304000     -0.569375      0.044622
C      4.25547      6.23373     10.35913        -1.037146      0.020259      0.171482
C      7.29314      7.29314      0.08601        -0.491369     -0.443394     -0.024096
C      6.23373      6.23373      0.13007         0.495925      0.303931      0.045602
C      3.19606      3.19606      0.08601         0.655097      0.446334     -0.025013
C      4.25547      4.25547      0.13007        -0.123606     -0.782237     -0.115894
C      7.29314      3.19606     10.40319        -0.406346      0.465930      0.051978
C      6.23373      4.25547     10.35913         0.606319     -0.729303      0.194052
O     10.43466      3.58206      8.50569         0.059136      0.194587      0.669025
O     10.54374     17.39634      8.50569         0.049317     -0.033452      0.306373
O     10.54374      3.58206     12.47271         0.004678     -0.044513     -0.225676
O     10.43466     17.39634     12.47271        -0.035503     -0.107885     -0.392362
O      8.50569     10.43466      3.58206         0.554323     -0.044689      0.140214
O      8.50569     10.54374     17.39634         0.863718     -0.085246     -0.169119
O     12.47271     10.54374      3.58206        -0.880880      0.139843      0.137028
O     12.47271     10.43466     17.39634        -0.620672      0.034518     -0.178489
O      3.58206      8.50569     10.43466         0.174200      0.668694     -0.028454
O     17.39634      8.50569     10.54374        -0.137234      0.631685      0.021398
O      3.58206     12.47271     10.54374         0.100432     -0.544867      0.055123
O     17.39634     12.47271     10.43466        -0.173002     -0.568488     -0.055800
O      3.58206     10.43466      8.50569         0.087489     -0.040043      0.388359
O     17.39634     10.54374      8.50569         0.052578      0.102384      0.327247
O      3.58206     10.54374     12.47271        -0.022227      0.032777     -0.239231
O     17.39634     10.43466     12.47271        -0.120809     -0.028661     -0.438200
O     10.43466      8.50569      3.58206        -0.039306      0.631325      0.180844
O     10.54374      8.50569     17.39634        -0.092000      0.811613     -0.171614
O     10.54374     12.47271      3.58206         0.116013     -0.944662      0.175281
O     10.43466     12.47271     17.39634         0.025344     -0.529427     -0.081130
O      8.50569      3.58206     10.43466         0.581096      0.152710     -0.052243
O      8.50569     17.39634     10.54374         0.600452     -0.166955      0.014403
O     12.47271      3.58206     10.54374        -0.752408      0.131410      0.009634
O     12.47271     17.39634     10.43466        -0.506764     -0.125178     -0.031705
O     11.90042     11.90042     19.56718        -0.326743     -0.264715      0.243958
O     19.56718     19.56718     19.56718         0.297954      0.325248      0.206065
O     19.56718     11.90042     11.90042         0.345941     -0.278622     -0.252742
O     11.90042     19.56718     11.90042        -0.280506      0.352000     -0.228182
O      9.45224      1.03696      9.45224        -0.028394      0.103295     -0.132906
O      1.03696      9.45224      9.45224         0.059916     -0.020690     -0.119857
O      1.03696      1.03696      1.03696         0.063646      0.100096      0.096102
O      9.45224      9.45224      1.03696        -0.037604     -0.026757      0.088227
Zr     10.48920      2.52580     10.48920        -0.094127     -0.254742      0.172534
Zr     10.48920     18.45260     10.48920         0.023417      0.055743      0.094944
Zr     10.48920     10.48920      2.52580        -0.320575     -0.260303     -0.387570
Zr     10.48920     10.48920     18.45260         0.186348     -0.018688      0.381843
Zr      2.52580     10.48920     10.48920        -0.136323     -0.047580     -0.069356
Zr     18.45260     10.48920     10.48920         0.110550     -0.053181      0.143881
Pd     12.70619      8.29181      9.73872        -0.002647     -0.017744     -0.004130
Pd      6.70073      9.60868     10.47655         0.030498      0.009430      0.019748
Pd      6.92110     11.77975     11.91586        -0.015147     -0.027298     -0.006711
Pd     12.24322     13.47689      7.26018         0.016135      0.016910     -0.009921
Pd     12.06989      7.90611      7.12679         0.004851      0.003046     -0.002238
Pd      8.52088      7.33045      6.93547        -0.036564      0.004198     -0.018718
Pd     11.49235     11.44863      5.67309        -0.009326      0.007736     -0.007835
Pd     14.47150      8.86671      7.81076         0.011687      0.023148      0.008799
Pd      9.83865     11.79591      7.88437         0.012531     -0.038227     -0.016300
Pd      7.07740      7.18021     11.96261         0.030378      0.006940      0.056134
Pd      6.46265      7.63165      8.50788        -0.003555     -0.000408     -0.007661
Pd      7.34364      9.27077     13.44419        -0.013916      0.001075     -0.002816
Pd     11.41410      6.05825      9.22473        -0.037035      0.023707     -0.027521
Pd      9.90688      9.56215      6.36036         0.024662      0.031100      0.018051
Pd      9.13283     13.96085      9.32452        -0.017579      0.024076      0.015640
Pd     10.94348      7.20752     11.53641        -0.039731      0.024362     -0.030150
Pd     10.32236      9.07556      9.01997         0.059617      0.000217      0.006258
Pd      9.30052     11.50668     10.48191         0.032108      0.029061      0.007502
Pd      8.91881      7.04685      9.60950        -0.004979      0.005984      0.044053
Pd      9.08825      7.28960     13.62124        -0.019369     -0.005777      0.021983
Pd      9.07957      9.07845     11.42315        -0.065449      0.002389     -0.029840
Pd     12.29149     10.60544      8.08344         0.012977     -0.034540     -0.020623
Pd      7.07680     12.06496      9.19792         0.011425     -0.008080     -0.016527
Pd      8.02767      9.78535      8.22727         0.011125     -0.027352     -0.031918
Pd     14.03470      6.33692      8.49930        -0.014593      0.032328     -0.023262
Pd     13.33077      8.37615     12.25599         0.008744     -0.002479      0.023776
Pd      9.17013     11.32591     13.20484        -0.004177      0.005196      0.035320
Pd     14.05028     12.41805      8.81621         0.021817     -0.024705      0.016009
Pd     13.17016     10.95145     13.02747        -0.033068      0.017367     -0.023690
Pd     14.31068     10.30591     10.44485         0.032967      0.017560      0.018014
Pd     11.68743     10.50315     10.84880         0.058035     -0.000739      0.045586
Pd     11.55081     12.99574      9.74310        -0.035209      0.018565     -0.001236
Pd     13.68614     12.92956     11.49376         0.012538     -0.006516     -0.008423
Pd     11.22567     12.73010     12.35274        -0.038133     -0.017640      0.005779
Pd     11.28928     11.51201     14.82179        -0.005094     -0.006425      0.000809
Pd     11.05235      9.32120     13.22112         0.021513      0.043468     -0.057290
Pd      9.44803      9.56348     15.29243         0.011975      0.017809      0.009143
Pd      8.83547     13.75338     11.99387         0.000923      0.008018     -0.003095
