152
# total energy = -1005.96531482 eVH     10.35389      5.87395      7.64558         0.238013      0.041134      0.631648
H     10.62451     15.10445      7.64558        -0.108451     -0.145969      0.533776
H     10.62451      5.87395     13.33282         0.491595      0.121562     -0.592067
H     10.35389     15.10445     13.33282         0.066706     -0.184952     -0.537806
H      7.64558     10.35389      5.87395         0.367673      0.033881      0.173748
H      7.64558     10.62451     15.10445         0.686288      0.466616     -0.043484
H     13.33282     10.62451      5.87395        -0.526809      0.411020      0.074484
H     13.33282     10.35389     15.10445        -0.792731     -0.088558     -0.004421
H      5.87395      7.64558     10.35389         0.262848      0.891589     -0.186069
H     15.10445      7.64558     10.62451        -0.097406      0.484683      0.282102
H      5.87395     13.33282     10.62451         0.154341     -0.696719     -0.165707
H     15.10445     13.33282     10.35389        -0.003262     -1.049857     -0.326885
H      5.87395     10.35389      7.64558         0.243514      0.084249      0.546564
H     15.10445     10.62451      7.64558        -0.114922      0.412251      0.778272
H      5.87395     10.62451     13.33282         0.144146      0.343434     -0.689261
H     15.10445     10.35389     13.33282        -0.037976     -0.069527     -0.703828
H     10.35389      7.64558      5.87395         0.345060      1.066733     -0.002242
H     10.62451      7.64558     15.10445         0.533260      0.534423     -0.117188
H     10.62451     13.33282      5.87395        -0.401389     -0.832973      0.195209
H     10.35389     13.33282     15.10445        -0.041126     -0.431739     -0.217662
H      7.64558      5.87395     10.35389         0.852648      0.080479     -0.278107
H      7.64558     15.10445     10.62451         0.824111     -0.203503     -0.005579
H     13.33282      5.87395     10.62451        -0.786450      0.186800      0.594535
H     13.33282     15.10445     10.35389        -0.439752     -0.105079     -0.134820
H     12.45634     12.45634     19.01126         0.235829      0.270691     -0.239459
H     19.01126     19.01126     19.01126        -0.261609     -0.240784     -0.261685
H     19.01126     12.45634     12.45634        -0.267391      0.267869      0.220417
H     12.45634     19.01126     12.45634         0.232959     -0.257852      0.275181
C     10.35284      5.61067      6.59456        -0.423752     -0.675708      0.106664
C     10.62556     15.36773      6.59456         0.067565      0.362471     -0.311767
C     10.62556      5.61067     14.38384        -0.328703     -0.383406     -0.284463
C     10.35284     15.36773     14.38384        -0.005461      0.332058      0.530045
C      6.59456     10.35284      5.61067        -0.320683     -0.005315     -0.290303
C      6.59456     10.62556     15.36773        -0.238381     -0.217037      0.783236
C     14.38384     10.62556      5.61067        -0.220353     -0.395626     -0.529963
C     14.38384     10.35284     15.36773         0.964832     -0.068177      0.252808
C      5.61067      6.59456     10.35284        -0.537824     -0.026571     -0.072306
C     15.36773      6.59456     10.62556         0.544073      0.008716     -0.249131
C      5.61067     14.38384     10.62556        -0.311778      0.980631      0.080330
C     15.36773     14.38384     10.35284         0.286838      1.049321      0.050856
C      5.61067     10.35284      6.59456        -0.202603     -0.133889     -0.611355
C     15.36773     10.62556      6.59456         0.442227     -0.264457      0.115057
C      5.61067     10.62556     14.38384        -0.682531     -0.345198     -0.104621
C     15.36773     10.35284     14.38384         0.382622     -0.063554      1.025228
C     10.35284      6.59456      5.61067        -0.217514     -0.347113     -0.647360
C     10.62556      6.59456     15.36773        -0.267945      0.132559      0.456529
C     10.62556     14.38384      5.61067         0.199212      1.059358     -0.339954
C     10.35284     14.38384     15.36773         0.011312      0.547493      0.429141
C      6.59456      5.61067     10.35284        -0.100756     -0.821838      0.269610
C      6.59456     15.36773     10.62556        -0.997349      0.274993      0.080905
C     14.38384      5.61067     10.62556         0.484343     -0.551006     -0.372248
C     14.38384     15.36773     10.35284         0.218609      0.458597     -0.095521
C     10.40319      3.19606      7.29314         0.015661      0.668458     -0.481497
C     10.35913      4.25547      6.23373         0.089233     -0.699149     -0.008269
C      0.08601      7.29314      7.29314        -0.044022     -0.408346     -0.319888
C      0.13007      6.23373      6.23373        -0.023543      0.094859      0.573160
C      0.08601      3.19606      3.19606        -0.008691      1.294179      0.285657
C      0.13007      4.25547      4.25547         0.051545     -0.781417     -0.162946
C     10.40319      7.29314      3.19606         0.011611     -0.315692      0.315201
C     10.35913      6.23373      4.25547         0.023778      0.010415     -0.811644
C      7.29314     10.40319      3.19606        -0.300551      0.022314      0.560526
C      6.23373     10.35913      4.25547         0.186641      0.062563     -0.078688
C      7.29314      0.08601      7.29314        -0.507298     -0.065846     -0.378047
C      6.23373      0.13007      6.23373         0.676898     -0.060049      0.475492
C      3.19606      0.08601      3.19606         0.766728     -0.031627      0.575324
C      4.25547      0.13007      4.25547        -0.586337     -0.088628     -0.540689
C      3.19606     10.40319      7.29314         0.476136     -0.010865     -0.751767
C      4.25547     10.35913      6.23373        -0.341192      0.066274      0.194305
C      3.19606      7.29314     10.40319         0.298412     -1.287105      0.047918
C      4.25547      6.23373     10.35913        -0.845977      0.109871      0.143236
C      7.29314      7.29314      0.08601        -0.408512     -0.378409     -0.025804
C      6.23373      6.23373      0.13007         0.459450      0.218315     -0.013053
C      3.19606      3.19606      0.08601         0.483540      0.374709     -0.041783
C      4.25547      4.25547      0.13007        -0.157063     -0.647627     -0.036093
C      7.29314      3.19606     10.40319        -0.329984      0.445981      0.075463
C      6.23373      4.25547     10.35913         0.301835     -0.677885      0.149090
O     10.43466      3.58206      8.50569        -0.017540      0.109207      0.505729
O     10.54374     17.39634      8.50569         0.035349     -0.175513      0.491683
O     10.54374      3.58206     12.47271         0.051679     -0.094712     -0.180344
O     10.43466     17.39634     12.47271        -0.039196     -0.183930     -0.533416
O      8.50569     10.43466      3.58206         0.291516     -0.008217      0.022059
O      8.50569     10.54374     17.39634         0.622280      0.036398     -0.143236
O     12.47271     10.54374      3.58206        -0.730864      0.086811      0.095134
O     12.47271     10.43466     17.39634        -0.438799      0.023148     -0.109025
O      3.58206      8.50569     10.43466         0.169754      1.045368     -0.036615
O     17.39634      8.50569     10.54374        -0.160778      0.543199      0.076472
O      3.58206     12.47271     10.54374         0.087145     -0.373003      0.050139
O     17.39634     12.47271     10.43466        -0.156510     -0.545826     -0.022718
O      3.58206     10.43466      8.50569         0.081126     -0.069864      0.587428
O     17.39634     10.54374      8.50569        -0.112022      0.066632      0.528682
O      3.58206     10.54374     12.47271         0.031744      0.044186     -0.515279
O     17.39634     10.43466     12.47271        -0.225561     -0.038631     -0.612900
O     10.43466      8.50569      3.58206        -0.039672      0.446169      0.138221
O     10.54374      8.50569     17.39634         0.051460      0.533755     -0.158319
O     10.54374     12.47271      3.58206         0.009241     -1.030112      0.195683
O     10.43466     12.47271     17.39634         0.039593     -0.715386     -0.173197
O      8.50569      3.58206     10.43466         0.514196      0.147014     -0.055593
O      8.50569     17.39634     10.54374         0.486234     -0.194852      0.015000
O     12.47271      3.58206     10.54374        -0.627092      0.225963      0.010630
O     12.47271     17.39634     10.43466        -0.228878      0.064800     -0.052172
O     11.90042     11.90042     19.56718        -0.239792     -0.289972      0.248407
O     19.56718     19.56718     19.56718         0.310613      0.295379      0.302529
O     19.56718     11.90042     11.90042         0.293679     -0.263897     -0.232882
O     11.90042     19.56718     11.90042        -0.241120      0.291904     -0.325725
O      9.45224      1.03696      9.45224        -0.018212      0.089109     -0.072456
O      1.03696      9.45224      9.45224         0.092796     -0.091324     -0.133665
O      1.03696      1.03696      1.03696         0.093319      0.188357      0.051305
O      9.45224      9.45224      1.03696        -0.107543     -0.106045      0.035683
Zr     10.48920      2.52580     10.48920        -0.127655     -0.285399     -0.037704
Zr     10.48920     18.45260     10.48920        -0.073373      0.215017      0.073210
Zr     10.48920     10.48920      2.52580         0.003541     -0.402543     -0.262334
Zr     10.48920     10.48920     18.45260        -0.279748     -0.092800      0.319580
Zr      2.52580     10.48920     10.48920        -0.384007      0.237999      0.275417
Zr     18.45260     10.48920     10.48920         0.235410     -0.002083     -0.221326
Pd     13.58849      8.94301      9.24900         0.007063      0.008055     -0.004851
Pd      5.63591      9.87556     10.15605        -0.003363      0.000685     -0.000712
Pd      6.78894     11.85755     11.69160        -0.004731     -0.000158      0.005744
Pd     12.07980     13.01946      7.36159         0.002489     -0.001426     -0.002821
Pd     11.89297      7.73885      7.44846        -0.000433      0.006099      0.002115
Pd      8.30979      6.88684      6.59567        -0.000648      0.000760     -0.007730
Pd     10.68165     11.17966      5.63401        -0.004333     -0.000846      0.003382
Pd     14.40872      8.55265      6.76366         0.002153     -0.001290     -0.003533
Pd      9.68907     11.73742      8.09934        -0.005083      0.001133      0.003531
Pd      6.76975      6.80468     12.31448        -0.002145     -0.002862      0.001720
Pd      6.50121      7.94907      8.14778         0.005521      0.028223     -0.025949
Pd      6.53825      8.50221     14.34847        -0.005754     -0.001022      0.000381
Pd     11.50356      6.52350      9.90875        -0.003006     -0.003638     -0.000070
Pd      9.54441      9.21544      7.13105        -0.008055      0.000377      0.003160
Pd      8.98834     13.99105      9.30608        -0.001104     -0.000513      0.006959
Pd      9.49657      7.36932     11.73190        -0.004915     -0.001650     -0.003713
Pd     10.60469      8.99123      9.68051        -0.000544     -0.005368      0.001264
Pd      9.33605     11.52944     10.68048        -0.000800      0.001246      0.005422
Pd      8.91331      7.04439      9.15832        -0.007092     -0.000446     -0.005698
Pd      8.55205      6.56985     14.24463         0.002062      0.008355     -0.001004
Pd      7.66897      9.33381     11.96369        -0.004116     -0.001345      0.005000
Pd     11.99085     10.38573      7.73562        -0.007805      0.002564      0.005031
Pd      7.13889     12.01907      9.04170        -0.002346     -0.002053      0.007046
Pd      8.11058      9.59904      9.33775         0.001547      0.000438      0.011608
Pd     14.02701      6.47588      8.50887        -0.002291      0.004588      0.001976
Pd     12.57775      8.36439     11.59910         0.001379      0.003097     -0.007020
Pd      8.77106     11.57831     13.39756        -0.002107      0.004046      0.000537
Pd     13.90097     11.95002      8.96004        -0.001442     -0.004143      0.005231
Pd     12.95868     10.68107     13.05121        -0.006637      0.002222      0.004755
Pd     14.79665     10.44418     11.08804        -0.003131     -0.000933      0.008798
Pd     12.08876     10.89075     10.51881        -0.004980     -0.001982      0.004848
Pd     11.44306     13.34184      9.92511         0.001504     -0.003992     -0.004017
Pd     13.60391     12.91895     11.62599        -0.000255     -0.001340      0.002274
Pd     11.12645     12.59829     12.52743        -0.003245      0.006039     -0.002104
Pd     10.95978     11.04905     14.80699        -0.005073      0.010791      0.001619
Pd     10.50847      9.75972     12.37020        -0.003061     -0.005500      0.004630
Pd      9.08755      9.13495     14.40300        -0.004991      0.008588      0.006990
Pd      8.83866     13.84448     11.99792        -0.006559      0.004397      0.004833
