32
# total energy = -234.68635936 eVH      7.29900     -2.19559     -0.00000        -0.001413     -0.006179      0.000000
H      0.33036      4.60017     -0.00000         0.001413      0.006179     -0.000000
H      4.72101      5.98399     -0.00000        -0.004701      0.004252      0.000000
H      2.90835     -3.57941     -0.00000         0.004701     -0.004252      0.000000
C      6.12804     -3.80082     -0.00000        -0.060555     -0.113916     -0.000000
C      1.50132      6.20540      0.00000         0.060555      0.113916     -0.000000
C      2.84124      6.62771     -0.00000        -0.114930      0.058608     -0.000000
C      4.78813     -4.22313      0.00000         0.114930     -0.058608      0.000000
C      6.96455      2.19504     -0.00000        -0.523401     -0.164962     -0.000000
C      4.49000      1.41513     -0.00000         0.157341      0.049590      0.000000
C      0.66482      0.20953     -0.00000         0.523401      0.164962     -0.000000
C      3.13937      0.98945     -0.00000        -0.157341     -0.049590     -0.000000
C      5.81885     -5.15663     -0.00000        -0.016314      0.051763      0.000000
C      1.81051      7.56121     -0.00000         0.016314     -0.051763      0.000000
N      4.70898      2.79066      0.00000        -0.252310     -0.069468     -0.000000
N      6.02270      3.18018     -0.00000         0.367877      0.044817     -0.000000
N      6.33031     -2.49357      0.00000         0.018841      0.073441      0.000000
N      2.92038     -0.38608     -0.00000         0.252310      0.069468     -0.000000
N      1.60667     -0.77560      0.00000        -0.367877     -0.044817     -0.000000
N      1.29905      4.89815      0.00000        -0.018841     -0.073441     -0.000000
N      5.45812      0.41375     -0.00000        -0.246546     -0.087758     -0.000000
N      6.75777      0.84789     -0.00000         0.327093      0.174219      0.000000
N      3.75652      5.67268     -0.00000         0.057546     -0.049366      0.000000
N      2.17124      1.99083     -0.00000         0.246546      0.087758      0.000000
N      0.87159      1.55668      0.00000        -0.327093     -0.174219      0.000000
N      3.87284     -3.26810     -0.00000        -0.057546      0.049366      0.000000
O      1.42120      8.79644     -0.00000        -0.011017      0.034956      0.000000
O      6.20816     -6.39187     -0.00000         0.011017     -0.034956      0.000000
Ir      6.81490     -8.31694     -0.00000         0.010405     -0.033013      0.000000
Ir      0.81447     10.72152     -0.00000        -0.010405      0.033013      0.000000
Ir      2.98804      3.82511     -0.00000         0.004597     -0.014585      0.000000
Ir      4.64133     -1.42053     -0.00000        -0.004597      0.014585      0.000000
