152
# total energy = -1110.36868462 eVH     10.35389      5.87395      7.64558        -0.347043     -0.151814      1.044376
H     10.62451     15.10445      7.64558         0.375258      0.087210      0.945381
H     10.62451      5.87395     13.33282        -0.312881     -0.710418     -1.402814
H     10.35389     15.10445     13.33282        -0.629657      0.390980     -0.325721
H      7.64558     10.35389      5.87395         0.541729     -0.536572     -0.083706
H      7.64558     10.62451     15.10445         0.363350     -0.241836      0.041994
H     13.33282     10.62451      5.87395        -0.535453      0.617994     -0.022435
H     13.33282     10.35389     15.10445        -0.529297      0.412214      0.162067
H      5.87395      7.64558     10.35389         0.143870      0.510648      0.034905
H     15.10445      7.64558     10.62451         0.429942      0.887632      0.257450
H      5.87395     13.33282     10.62451        -0.227501     -0.457285      0.363612
H     15.10445     13.33282     10.35389         0.030658     -0.308543     -0.389849
H      5.87395     10.35389      7.64558        -0.073699     -0.355498      1.437754
H     15.10445     10.62451      7.64558         0.206930      0.430851      1.271867
H      5.87395     10.62451     13.33282        -0.161504     -0.345366     -1.145729
H     15.10445     10.35389     13.33282         0.543854      0.893096     -1.513484
H     10.35389      7.64558      5.87395        -0.537648      0.498545     -0.190478
H     10.62451      7.64558     15.10445        -0.138411      0.531552      0.193695
H     10.62451     13.33282      5.87395         0.898290     -1.397594     -0.327395
H     10.35389     13.33282     15.10445         0.277184     -0.551105     -0.077217
H      7.64558      5.87395     10.35389         0.720135      0.174031     -0.146021
H      7.64558     15.10445     10.62451         1.975559      0.803561      0.199208
H     13.33282      5.87395     10.62451        -2.688754     -0.974522     -0.439816
H     13.33282     15.10445     10.35389        -0.872904     -0.043981     -0.252039
H     12.45634     12.45634     19.01126         0.271769      0.257924     -0.227372
H     19.01126     19.01126     19.01126        -0.266840     -0.254607     -0.238176
H     19.01126     12.45634     12.45634        -0.282852      0.281163      0.187153
H     12.45634     19.01126     12.45634         0.255942     -0.251552      0.236038
C     10.35284      5.61067      6.59456         0.092812     -0.502226     -1.248581
C     10.62556     15.36773      6.59456         0.164602      0.766655     -0.838984
C     10.62556      5.61067     14.38384         0.175634     -0.323218      1.816010
C     10.35284     15.36773     14.38384         0.115286      0.393906      1.808763
C      6.59456     10.35284      5.61067        -1.123694     -0.111178     -0.852267
C      6.59456     10.62556     15.36773        -0.682718     -0.105181      0.743222
C     14.38384     10.62556      5.61067         0.878274     -0.113059     -1.000521
C     14.38384     10.35284     15.36773         1.204006      0.165372      1.102413
C      5.61067      6.59456     10.35284        -0.682847     -0.826132     -0.168725
C     15.36773      6.59456     10.62556         1.954255     -0.211213     -0.179624
C      5.61067     14.38384     10.62556        -1.577523     -0.005342     -0.117312
C     15.36773     14.38384     10.35284         0.486433      0.057526      0.025747
C      5.61067     10.35284      6.59456        -0.274255      0.199366     -1.351658
C     15.36773     10.62556      6.59456         0.278662     -0.209400     -1.001156
C      5.61067     10.62556     14.38384        -0.272897      0.394914      1.427544
C     15.36773     10.35284     14.38384         0.064638     -0.431609      1.908019
C     10.35284      6.59456      5.61067        -0.194580     -0.911301     -0.688738
C     10.62556      6.59456     15.36773        -0.101500     -0.795830      1.050235
C     10.62556     14.38384      5.61067        -0.488452      2.038512     -0.784501
C     10.35284     14.38384     15.36773        -0.289566      1.459105      0.475590
C      6.59456      5.61067     10.35284        -0.962489     -0.411997      0.080106
C      6.59456     15.36773     10.62556        -1.329310      0.358191     -0.331364
C     14.38384      5.61067     10.62556         1.291758     -1.180762      0.164393
C     14.38384     15.36773     10.35284         0.415377      0.316646      0.060704
C     10.40319      3.19606      7.29314         0.002751      0.310091     -0.099641
C     10.35913      4.25547      6.23373         0.137857     -0.517274      0.024873
C      0.08601      7.29314      7.29314        -0.053702     -0.305661     -0.429275
C      0.13007      6.23373      6.23373        -0.125675      0.720304      0.038769
C      0.08601      3.19606      3.19606        -0.108974      1.625067      0.173635
C      0.13007      4.25547      4.25547        -0.085348     -0.406871     -1.245368
C     10.40319      7.29314      3.19606         0.016807     -0.426227      0.128855
C     10.35913      6.23373      4.25547         0.260152      0.080147     -0.493812
C      7.29314     10.40319      3.19606        -1.662352      0.006456      0.326100
C      6.23373     10.35913      4.25547         0.652024      0.076700     -0.608339
C      7.29314      0.08601      7.29314        -0.399971     -0.010484     -0.300170
C      6.23373      0.13007      6.23373         0.645240     -0.053446      0.271981
C      3.19606      0.08601      3.19606         0.660180     -0.015687      0.189120
C      4.25547      0.13007      4.25547        -0.375844     -0.066512     -0.502382
C      3.19606     10.40319      7.29314         0.376708      0.018771     -0.318019
C      4.25547     10.35913      6.23373        -0.724229      0.061867      0.370426
C      3.19606      7.29314     10.40319         0.301896     -0.216861     -0.006338
C      4.25547      6.23373     10.35913         0.051639      0.648763      0.093027
C      7.29314      7.29314      0.08601        -0.717781     -0.597182     -0.017410
C      6.23373      6.23373      0.13007         0.826814      1.139632     -0.077660
C      3.19606      3.19606      0.08601         0.809833      0.492616      0.011667
C      4.25547      4.25547      0.13007        -0.323861     -1.721313     -0.124755
C      7.29314      3.19606     10.40319        -0.332600      0.278031     -0.003301
C      6.23373      4.25547     10.35913         0.517335     -0.033623      0.230248
O     10.43466      3.58206      8.50569        -0.047689      0.181541      0.258658
O     10.54374     17.39634      8.50569         0.041622     -0.231475      0.485200
O     10.54374      3.58206     12.47271         0.085025     -0.058429     -0.042040
O     10.43466     17.39634     12.47271        -0.023237     -0.139824     -0.278900
O      8.50569     10.43466      3.58206         0.981711      0.183120      0.388617
O      8.50569     10.54374     17.39634         0.567491      0.084031     -0.226914
O     12.47271     10.54374      3.58206        -0.430234     -0.038106      0.189042
O     12.47271     10.43466     17.39634        -0.522705     -0.070336     -0.198871
O      3.58206      8.50569     10.43466         0.180026      0.438093     -0.030740
O     17.39634      8.50569     10.54374        -0.228657      0.713526      0.042799
O      3.58206     12.47271     10.54374         0.159195     -0.667866      0.024552
O     17.39634     12.47271     10.43466        -0.185295     -0.482850     -0.012859
O      3.58206     10.43466      8.50569         0.220965     -0.059188      0.400708
O     17.39634     10.54374      8.50569        -0.170191      0.036800      0.410653
O      3.58206     10.54374     12.47271         0.144191      0.021097     -0.307572
O     17.39634     10.43466     12.47271         0.067580     -0.050081     -0.088220
O     10.43466      8.50569      3.58206        -0.001050      0.278567      0.179596
O     10.54374      8.50569     17.39634         0.070936      0.439703     -0.182294
O     10.54374     12.47271      3.58206        -0.222465     -0.965164      0.347651
O     10.43466     12.47271     17.39634        -0.084796     -0.448367     -0.244663
O      8.50569      3.58206     10.43466         0.497677      0.195713     -0.012894
O      8.50569     17.39634     10.54374         0.658593     -0.194894      0.022670
O     12.47271      3.58206     10.54374        -0.737099      0.278361      0.036566
O     12.47271     17.39634     10.43466        -0.442230     -0.200211     -0.044202
O     11.90042     11.90042     19.56718        -0.345349     -0.307267      0.259036
O     19.56718     19.56718     19.56718         0.325722      0.311121      0.282032
O     19.56718     11.90042     11.90042         0.278172     -0.277854     -0.141133
O     11.90042     19.56718     11.90042        -0.306991      0.287940     -0.233959
O      9.45224      1.03696      9.45224        -0.057452      0.071372     -0.047963
O      1.03696      9.45224      9.45224         0.035529     -0.072725     -0.072679
O      1.03696      1.03696      1.03696         0.056979      0.138777      0.104749
O      9.45224      9.45224      1.03696        -0.131511     -0.088810      0.104580
Zr     10.48920      2.52580     10.48920         0.145775     -0.164490     -0.161685
Zr     10.48920     18.45260     10.48920        -0.093658      0.179445     -0.042475
Zr     10.48920     10.48920      2.52580         0.326950     -0.309262     -0.197157
Zr     10.48920     10.48920     18.45260         0.002788     -0.084319      0.207981
Zr      2.52580     10.48920     10.48920        -0.065174      0.165140     -0.051300
Zr     18.45260     10.48920     10.48920         0.136648     -0.123125     -0.247911
Ir     12.05660     12.48762     10.46257        -0.004637     -0.000822      0.001082
Ir     11.16573      7.41711     10.31986         0.025636      0.001915     -0.032456
Ir      8.81145      7.38895     11.58188         0.018940     -0.022442     -0.012628
Ir      7.48591     11.66367      7.65573         0.002404     -0.004358      0.006112
Ir     11.59504     12.09496      7.12570        -0.002598     -0.016309     -0.015701
Ir     13.74307      8.97988      7.56127         0.019259      0.008527     -0.010426
Ir     12.50061     13.95425      8.42147        -0.007731      0.009447     -0.001208
Ir      9.71750     11.26771      5.56981         0.012640     -0.009406      0.000196
Ir      9.08512     13.47409      7.07586        -0.007505     -0.007621     -0.000278
Ir      9.28674      9.66275      7.53451        -0.003042      0.011862     -0.012821
Ir     13.25956      7.04001     11.95450         0.021335     -0.011645     -0.005346
Ir     13.55534      7.02924      9.12108         0.031550      0.001803     -0.002998
Ir     11.02002      7.60711     12.86096         0.008797     -0.003892     -0.007642
Ir     13.61439     11.55906      8.75656        -0.002068     -0.002221      0.001038
Ir     11.50423      9.65890      6.23873        -0.006790      0.000112     -0.008971
Ir      7.14414      9.19534      8.94607         0.000366     -0.018704     -0.009185
Ir     14.06048     11.42154     11.66374         0.002622      0.003023     -0.005077
Ir     11.64970      9.87053      8.90131         0.008575     -0.014511     -0.005848
Ir      9.42505      9.52860     10.25351         0.017656      0.016967     -0.010182
Ir     13.85626      9.39481     10.19076         0.006226      0.015390     -0.005407
Ir     13.80340      9.15284     12.91493         0.014676      0.015453     -0.007391
Ir     11.68193      9.76546     11.57415         0.012103     -0.002984     -0.009235
Ir      9.91095     11.75990      8.97871        -0.010879     -0.033035      0.001534
Ir      9.03941      7.44008      8.84672         0.027214     -0.016804     -0.028748
Ir     11.51618      7.58910      7.79163         0.042588     -0.020747     -0.012834
Ir      9.24442      9.50529     13.02189         0.011278     -0.004551     -0.003117
Ir      7.52881     13.92592      8.99177        -0.009865     -0.013478      0.001530
Ir     10.90500     14.12579     11.94732        -0.011127     -0.007852      0.004797
Ir     10.12731     14.17504      9.52267        -0.008459      0.000275      0.002446
Ir      9.79987     11.70903     11.72786        -0.013810     -0.025747      0.003524
Ir      7.58818     11.60131     10.21229         0.005699     -0.019679      0.001261
Ir      8.37340     13.77141     11.58671        -0.014982     -0.012380      0.000280
Ir      7.52813     11.60364     12.83162         0.005952     -0.026826     -0.005750
Ir      9.76569     11.63976     14.34387         0.004527     -0.019520     -0.002166
Ir     13.50006     13.87684     12.19353        -0.011947      0.006592     -0.001875
Ir     11.99692     12.05979     13.08682        -0.003784     -0.009878      0.002131
Ir     11.56728      9.82090     14.21287         0.004789     -0.009701     -0.008220
Ir      7.13876      9.40606     11.50640         0.005775     -0.021711     -0.003874
