36
# total energy = -265.52442485 eVH      5.49242     -0.00000      7.50000         0.087516     -0.000000     -0.000000
H     10.62528     -0.00000      7.50000        -0.087516     -0.000000     -0.000000
H      0.00000      5.49242      7.50000        -0.000000      0.087516     -0.000000
H      0.00000     10.62528      7.50000         0.000000     -0.087516      0.000000
C      8.79189     14.93474      7.50000         0.044316     -0.001362     -0.000000
C      7.32581      1.18296      7.50000        -0.044316      0.001362      0.000000
C      1.18296      8.79189      7.50000         0.001362      0.044316     -0.000000
C     14.93474      7.32581      7.50000        -0.001362     -0.044316      0.000000
C      7.32581     14.93474      7.50000        -0.044316     -0.001362     -0.000000
C      8.79189      1.18296      7.50000         0.044316      0.001362      0.000000
C     14.93474      8.79189      7.50000        -0.001362      0.044316      0.000000
C      1.18296      7.32581      7.50000         0.001362     -0.044316     -0.000000
C      9.53360      0.00000      7.50000         0.060833      0.000000     -0.000000
C      6.58410     -0.00000      7.50000        -0.060833     -0.000000     -0.000000
C      0.00000      9.53360      7.50000        -0.000000      0.060833     -0.000000
C      0.00000      6.58410      7.50000         0.000000     -0.060833     -0.000000
C      8.05885      7.00547      7.50000         0.000000      0.249484     -0.000000
C      8.05885      9.11223      7.50000        -0.000000     -0.249484     -0.000000
C      9.11223      8.05885      7.50000        -0.249484     -0.000000     -0.000000
C      7.00547      8.05885      7.50000         0.249484      0.000000     -0.000000
N      5.73127      8.05885      7.50000        -0.404316     -0.000000     -0.000000
N     10.38643      8.05885      7.50000         0.404316     -0.000000     -0.000000
N      8.05885      5.73127      7.50000        -0.000000     -0.404316     -0.000000
N      8.05885     10.38643      7.50000         0.000000      0.404316     -0.000000
O      6.80935      2.38668      7.50000        -0.003741     -0.027719      0.000000
O      9.30835     13.73102      7.50000         0.003741      0.027719     -0.000000
O     13.73102      6.80935      7.50000         0.027719     -0.003741     -0.000000
O      2.38668      9.30835      7.50000        -0.027719      0.003741      0.000000
O      9.30835      2.38668      7.50000         0.003741     -0.027719     -0.000000
O      6.80935     13.73102      7.50000        -0.003741      0.027719      0.000000
O      2.38668      6.80935      7.50000        -0.027719     -0.003741      0.000000
O     13.73102      9.30835      7.50000         0.027719      0.003741     -0.000000
Ir      3.95170      8.05885      7.50000         0.205714      0.000000     -0.000000
Ir     12.16600      8.05885      7.50000        -0.205714      0.000000     -0.000000
Ir      8.05885      3.95170      7.50000        -0.000000      0.205714     -0.000000
Ir      8.05885     12.16600      7.50000         0.000000     -0.205714     -0.000000
