152
# total energy = -1023.21403730 eVH     10.35389      5.87395      7.64558         0.488095      0.081059      0.710409
H     10.62451     15.10445      7.64558        -0.117942     -0.042812      0.818194
H     10.62451      5.87395     13.33282         0.143605      0.125658     -0.633163
H     10.35389     15.10445     13.33282        -0.166407     -0.122892     -0.540025
H      7.64558     10.35389      5.87395         0.311586     -0.022175      0.192683
H      7.64558     10.62451     15.10445         0.643477     -0.220291     -0.142213
H     13.33282     10.62451      5.87395        -0.770140     -0.157265      0.204060
H     13.33282     10.35389     15.10445        -0.423651     -0.100105     -0.069278
H      5.87395      7.64558     10.35389         0.207171      1.104984     -0.278720
H     15.10445      7.64558     10.62451        -0.175637      0.474266     -0.125480
H      5.87395     13.33282     10.62451         0.160057     -0.421177     -0.063286
H     15.10445     13.33282     10.35389        -0.130425     -0.906301      0.015304
H      5.87395     10.35389      7.64558         0.135014      0.095258      0.458736
H     15.10445     10.62451      7.64558         0.101408     -0.032878      1.068398
H      5.87395     10.62451     13.33282         0.197512     -0.032166     -0.385707
H     15.10445     10.35389     13.33282        -0.127273     -0.047822     -0.535628
H     10.35389      7.64558      5.87395         0.130546      0.887848      0.186310
H     10.62451      7.64558     15.10445        -0.013039      0.551482     -0.161625
H     10.62451     13.33282      5.87395        -0.019591     -0.591195      0.221573
H     10.35389     13.33282     15.10445        -0.289236     -0.895198     -0.128374
H      7.64558      5.87395     10.35389         0.442725      0.095299     -0.056640
H      7.64558     15.10445     10.62451         0.850031     -0.278268      0.034996
H     13.33282      5.87395     10.62451        -0.455841      0.186219     -0.065974
H     13.33282     15.10445     10.35389        -0.661050     -0.100277      0.162907
H     12.45634     12.45634     19.01126         0.253098      0.263635     -0.229842
H     19.01126     19.01126     19.01126        -0.251567     -0.231404     -0.261748
H     19.01126     12.45634     12.45634        -0.235428      0.272294      0.240580
H     12.45634     19.01126     12.45634         0.225107     -0.264481      0.249737
C     10.35284      5.61067      6.59456        -0.191399     -0.357428     -0.033204
C     10.62556     15.36773      6.59456         0.071451      0.370937     -1.236747
C     10.62556      5.61067     14.38384        -0.055858     -0.256134      0.802378
C     10.35284     15.36773     14.38384         0.044237      0.892056      0.422112
C      6.59456     10.35284      5.61067        -0.365760     -0.036110     -0.168735
C      6.59456     10.62556     15.36773        -0.825417      0.195072      0.364086
C     14.38384     10.62556      5.61067         0.459532      0.301991     -0.503356
C     14.38384     10.35284     15.36773         0.772230     -0.111542      0.442932
C      5.61067      6.59456     10.35284        -0.315778     -0.655748      0.426642
C     15.36773      6.59456     10.62556         0.169697     -0.515840      0.084209
C      5.61067     14.38384     10.62556        -0.144953      0.385199     -0.022848
C     15.36773     14.38384     10.35284         0.401189     -0.036838     -0.098776
C      5.61067     10.35284      6.59456        -0.258763     -0.020387     -0.781007
C     15.36773     10.62556      6.59456         0.605553     -0.267392     -1.347976
C      5.61067     10.62556     14.38384        -0.338355     -0.000761      0.434246
C     15.36773     10.35284     14.38384         0.485389     -0.164369      1.118328
C     10.35284      6.59456      5.61067        -0.160410     -0.502424     -0.427400
C     10.62556      6.59456     15.36773         0.058005     -0.665105      0.274615
C     10.62556     14.38384      5.61067         0.101865      0.996165     -0.497024
C     10.35284     14.38384     15.36773         0.256034      0.606017      0.537151
C      6.59456      5.61067     10.35284        -0.096881     -0.814540      0.075722
C      6.59456     15.36773     10.62556        -1.529021      0.414038      0.108566
C     14.38384      5.61067     10.62556         0.643646     -0.277113     -0.018490
C     14.38384     15.36773     10.35284        -0.427899      0.677036     -0.309117
C     10.40319      3.19606      7.29314         0.007628      0.830606     -0.289734
C     10.35913      4.25547      6.23373        -0.056443     -0.461544      0.502494
C      0.08601      7.29314      7.29314        -0.006803     -0.256423     -0.509929
C      0.13007      6.23373      6.23373         0.033434      0.152226      0.214994
C      0.08601      3.19606      3.19606        -0.011273      0.633942      0.196659
C      0.13007      4.25547      4.25547        -0.093467     -0.179801     -0.197304
C     10.40319      7.29314      3.19606        -0.007711     -0.643065      0.562447
C     10.35913      6.23373      4.25547        -0.047335      0.266624     -0.611672
C      7.29314     10.40319      3.19606        -0.321417      0.026125      0.941122
C      6.23373     10.35913      4.25547         0.169408      0.028533     -0.126168
C      7.29314      0.08601      7.29314        -0.303913     -0.038055     -0.299793
C      6.23373      0.13007      6.23373         0.329339     -0.050808      0.321139
C      3.19606      0.08601      3.19606         0.524319     -0.033792      0.718700
C      4.25547      0.13007      4.25547        -0.091170     -0.031527     -0.372528
C      3.19606     10.40319      7.29314         0.727896      0.001042     -0.401319
C      4.25547     10.35913      6.23373        -0.152829      0.027673      0.080105
C      3.19606      7.29314     10.40319         0.679614     -1.280092     -0.009438
C      4.25547      6.23373     10.35913        -0.655212      0.919847      0.083915
C      7.29314      7.29314      0.08601        -0.683223     -0.180750     -0.019230
C      6.23373      6.23373      0.13007         0.217375      0.206439      0.017452
C      3.19606      3.19606      0.08601         0.267447      0.293644     -0.021140
C      4.25547      4.25547      0.13007        -0.073197     -0.038139     -0.002739
C      7.29314      3.19606     10.40319        -0.362732      1.016792      0.016952
C      6.23373      4.25547     10.35913         1.060848     -0.032830      0.015498
O     10.43466      3.58206      8.50569        -0.043706      0.049599      0.383394
O     10.54374     17.39634      8.50569        -0.040083     -0.172145      0.586658
O     10.54374      3.58206     12.47271         0.050396      0.065008     -0.316093
O     10.43466     17.39634     12.47271        -0.008899     -0.140305     -0.630346
O      8.50569     10.43466      3.58206         0.350137     -0.029216     -0.030507
O      8.50569     10.54374     17.39634         0.469363      0.045132     -0.145263
O     12.47271     10.54374      3.58206        -0.475988      0.012860      0.079605
O     12.47271     10.43466     17.39634        -0.813690      0.003769     -0.197508
O      3.58206      8.50569     10.43466         0.108623      1.038549      0.017202
O     17.39634      8.50569     10.54374        -0.031777      0.309942      0.074444
O      3.58206     12.47271     10.54374         0.073358     -0.461697      0.051665
O     17.39634     12.47271     10.43466        -0.176073     -0.901927      0.058651
O      3.58206     10.43466      8.50569        -0.065606     -0.069215      0.320047
O     17.39634     10.54374      8.50569        -0.131564      0.041659      0.462873
O      3.58206     10.54374     12.47271         0.091713     -0.026124     -0.648152
O     17.39634     10.43466     12.47271        -0.183378      0.055500     -0.787395
O     10.43466      8.50569      3.58206         0.028107      0.641034      0.156318
O     10.54374      8.50569     17.39634         0.061470      0.439565     -0.083498
O     10.54374     12.47271      3.58206        -0.010108     -0.725473      0.230560
O     10.43466     12.47271     17.39634         0.034272     -0.839929     -0.239199
O      8.50569      3.58206     10.43466         0.439136      0.018670     -0.040748
O      8.50569     17.39634     10.54374         0.691695     -0.263932     -0.062784
O     12.47271      3.58206     10.54374        -0.461796      0.152257      0.041996
O     12.47271     17.39634     10.43466        -0.559833     -0.024776     -0.006204
O     11.90042     11.90042     19.56718        -0.294473     -0.313415      0.256622
O     19.56718     19.56718     19.56718         0.283433      0.262890      0.311878
O     19.56718     11.90042     11.90042         0.260617     -0.321921     -0.244332
O     11.90042     19.56718     11.90042        -0.271567      0.277934     -0.265123
O      9.45224      1.03696      9.45224        -0.082485      0.042426     -0.069761
O      1.03696      9.45224      9.45224         0.014845     -0.169499     -0.096428
O      1.03696      1.03696      1.03696         0.003185      0.069112      0.179551
O      9.45224      9.45224      1.03696        -0.061935     -0.101636      0.107376
Zr     10.48920      2.52580     10.48920         0.002502     -0.096226     -0.050621
Zr     10.48920     18.45260     10.48920         0.130790      0.357576     -0.004970
Zr     10.48920     10.48920      2.52580         0.009713     -0.029218     -0.383221
Zr     10.48920     10.48920     18.45260        -0.156650     -0.059374      0.366129
Zr      2.52580     10.48920     10.48920        -0.328020      0.240477     -0.136912
Zr     18.45260     10.48920     10.48920         0.278793     -0.017974     -0.282913
Pd      9.01112     10.14020     13.30469        -0.044973     -0.027952      0.026270
Pd     10.69767      9.72013     10.88554        -0.014810     -0.043616     -0.082046
Pd     13.73742      8.38888     12.57156        -0.016528      0.025868      0.007019
Pd     11.02175     10.92149     14.96443        -0.032835     -0.022251      0.013948
Pd     12.89712     11.01351     12.93936         0.026697      0.018155      0.064618
Pd     15.10609     11.10990     11.31375        -0.009577     -0.025574      0.002113
Pd      6.60344      7.69898     12.31300        -0.007988      0.027555      0.015406
Pd      9.31865      7.29878      9.87658        -0.007984     -0.011053     -0.019330
Pd      9.22730      7.48007     12.63641         0.008748     -0.004744     -0.014436
Pd     11.63725      7.15884     11.42393        -0.000481      0.007080     -0.006334
Pd     11.69332      8.01440      8.91944         0.019915     -0.033474     -0.036059
Pd      7.38344     11.78216     11.78481        -0.020699     -0.004147     -0.007053
Pd      9.19316     14.76376      9.43620         0.003600     -0.020528      0.006533
Pd      8.41019     12.55829     14.25668        -0.016753     -0.011354     -0.004428
Pd     14.09071     14.25537      8.31294         0.001947     -0.006560      0.000545
Pd     11.49378     13.65532      8.71748         0.019146     -0.018114      0.020158
Pd     14.16839     11.69614      8.88603        -0.019477     -0.007065      0.009685
Pd      8.72002     14.04108     12.06712        -0.001646     -0.003495      0.004365
Pd     12.27881     13.49319     14.14649        -0.000677      0.026440     -0.006868
Pd     11.34026     14.43831     11.43794         0.008791     -0.008521     -0.002825
Pd     14.07997     13.60552     12.27376         0.002205     -0.014193     -0.006462
Pd     12.43068     12.18843     10.71586        -0.008690     -0.059920      0.018077
Pd     12.75292     12.52241      6.67838        -0.004748      0.006311      0.009370
Pd     13.93075      9.00446      8.00103        -0.002901     -0.003001     -0.006668
Pd      6.94076      8.50387      8.76743        -0.006503     -0.015251     -0.015919
Pd      5.62637     10.10672     10.73358        -0.008239     -0.004723     -0.044295
Pd      9.39803      9.47961      8.13554        -0.004411     -0.020519     -0.067063
Pd      8.57892      7.04513      7.24424        -0.019747     -0.030568     -0.012850
Pd      9.76493     12.14061     10.34784        -0.013541     -0.018957     -0.000183
Pd     11.64029     10.82017      8.49988        -0.006987     -0.004083     -0.032545
Pd     11.57936      9.09742      6.47652         0.012927     -0.001735     -0.008115
Pd     10.08742     11.34857      6.32479        -0.008980      0.010273     -0.009530
Ir     11.30755      8.98296     13.24805        -0.024685      0.052151     -0.061792
Ir     13.22255      9.63319     10.39441        -0.010054     -0.027499     -0.043916
Ir     10.55863     12.23886     12.72855        -0.006119     -0.039812      0.021417
Ir      7.59098     11.01055      9.26099         0.031647      0.007660     -0.036643
Ir      8.83041     12.61773      8.07334         0.050416     -0.045743      0.009017
Ir      8.19831      9.31392     11.00834        -0.011646     -0.011740     -0.009145
