9
# total energy = -62.83650577 eVH      2.42672      2.86417      0.00000         9.147885      0.980166      0.000000
H      0.14378      6.59072      0.00000        -9.147885     -0.980166      0.000000
C      1.25921      8.06378      0.00000        -0.601136      0.545156     -0.000000
C      1.31130      1.39110     -0.00000         0.601136     -0.545156      0.000000
C      0.00340      8.83281     -0.00000        -0.112701     -0.655495      0.000000
C     -0.00340      0.69227      0.00000         0.112701      0.655495     -0.000000
N      1.57057      2.69526     -0.00000        -9.564568     -0.663749      0.000000
N      0.99993      6.75963      0.00000         9.564568      0.663749     -0.000000
Ir      1.28525      4.72744      0.00000        -0.000000      0.000000      0.000000
