26
# total energy = -177.58804301 eVH      0.07881      6.30414      7.50000         0.012662     -0.000300      0.000000
H      2.98049      1.80557      7.50000        -0.000176     -0.011273      0.000000
H      5.47105      5.38082      7.50000        -0.011647     -0.003898      0.000000
H      8.39290     -2.59050      7.50000        -0.012662      0.000300      0.000000
H      5.49122      1.90807      7.50000         0.000176      0.011273      0.000000
H      3.00066     -1.66718      7.50000         0.011647      0.003898      0.000000
C      7.54751      2.58251      7.50000        -0.022862     -0.017891     -0.000000
C      1.43150     -0.23887      7.50000        -0.004270      0.022702     -0.000000
C      7.96517     -4.69910      7.50000         0.012656      0.017304      0.000000
C      0.92420      1.13114      7.50000         0.022862      0.017891     -0.000000
C      7.04021      3.95251      7.50000         0.004270     -0.022702     -0.000000
C      0.50654      8.41274      7.50000        -0.012656     -0.017304      0.000000
C      7.58930     -3.32359      7.50000         0.027023     -0.001632      0.000000
C      6.53028      1.57927      7.50000        -0.016746      0.012279      0.000000
C      2.79505     -0.59019      7.50000        -0.005022      0.007264     -0.000000
C      0.88241      7.03723      7.50000        -0.027023      0.001632      0.000000
C      1.94143      2.13438      7.50000         0.016746     -0.012279      0.000000
C      5.67666      4.30384      7.50000         0.005022     -0.007264     -0.000000
O      6.39641     -2.80768      7.50000         0.011082      0.002394      0.000000
O      6.72722      0.29664      7.50000         0.001391      0.025132      0.000000
O      3.89220      0.12480      7.50000        -0.010735     -0.022498      0.000000
O      2.07530      6.52132      7.50000        -0.011082     -0.002394      0.000000
O      1.74449      3.41700      7.50000        -0.001391     -0.025132     -0.000000
O      4.57951      3.58885      7.50000         0.010735      0.022498      0.000000
Ir      5.42199     -1.15893      7.50000         0.034778     -0.008860     -0.000000
Ir      3.04972      4.87257      7.50000        -0.034778      0.008860      0.000000
