152
# total energy = -1060.00385637 eVH     10.35389      5.87395      7.64558        -0.259458      0.000883      1.143127
H     10.62451     15.10445      7.64558         0.039662     -0.092055      0.923098
H     10.62451      5.87395     13.33282        -0.233876      0.090256     -0.786797
H     10.35389     15.10445     13.33282         0.096495     -0.296515     -0.897283
H      7.64558     10.35389      5.87395         0.928555     -0.110813      0.183505
H      7.64558     10.62451     15.10445         0.338022     -0.044953     -0.076545
H     13.33282     10.62451      5.87395        -0.870807      0.210785      0.202782
H     13.33282     10.35389     15.10445        -0.277408     -0.011452     -0.068306
H      5.87395      7.64558     10.35389         0.088999      0.411910     -0.017763
H     15.10445      7.64558     10.62451         0.014658      0.515498     -0.033942
H      5.87395     13.33282     10.62451        -0.017709     -0.965780      0.077906
H     15.10445     13.33282     10.35389        -0.078515     -0.319760      0.004684
H      5.87395     10.35389      7.64558         0.269706      0.118392      0.418655
H     15.10445     10.62451      7.64558        -0.126402     -0.174422      0.648942
H      5.87395     10.62451     13.33282        -0.091198      0.458999     -0.614481
H     15.10445     10.35389     13.33282         0.268399     -0.659584     -0.811396
H     10.35389      7.64558      5.87395        -0.046137      0.482963      0.331681
H     10.62451      7.64558     15.10445         0.217996      0.749209     -0.048579
H     10.62451     13.33282      5.87395         0.119576     -0.559035      0.204719
H     10.35389     13.33282     15.10445         0.047250     -0.286615     -0.132973
H      7.64558      5.87395     10.35389         0.339733      0.092810      0.012446
H      7.64558     15.10445     10.62451         0.367864     -0.112375      0.156604
H     13.33282      5.87395     10.62451        -0.319095      0.126627     -0.037873
H     13.33282     15.10445     10.35389        -0.652461     -0.135252      0.144406
H     12.45634     12.45634     19.01126         0.254652      0.270471     -0.229694
H     19.01126     19.01126     19.01126        -0.245834     -0.268784     -0.244994
H     19.01126     12.45634     12.45634        -0.251893      0.268975      0.235348
H     12.45634     19.01126     12.45634         0.290308     -0.236066      0.234261
C     10.35284      5.61067      6.59456         0.397516     -0.432008     -1.464344
C     10.62556     15.36773      6.59456        -0.163558      0.564989     -0.626150
C     10.62556      5.61067     14.38384         0.387461     -0.350005      0.847131
C     10.35284     15.36773     14.38384        -0.234762      0.223393      1.108695
C      6.59456     10.35284      5.61067        -1.374677      0.018411     -0.248766
C      6.59456     10.62556     15.36773        -0.657881      0.059808      0.384010
C     14.38384     10.62556      5.61067         1.302087     -0.172625     -0.617392
C     14.38384     10.35284     15.36773         0.379869     -0.122034      0.358198
C      5.61067      6.59456     10.35284        -0.297226     -0.613721     -0.009325
C     15.36773      6.59456     10.62556         0.421053     -1.010769      0.028246
C      5.61067     14.38384     10.62556        -0.118690      1.160952     -0.182262
C     15.36773     14.38384     10.35284         0.455673      0.645806     -0.025963
C      5.61067     10.35284      6.59456        -0.362409     -0.102215     -0.708918
C     15.36773     10.62556      6.59456         0.420205      0.120126     -0.753357
C      5.61067     10.62556     14.38384        -0.384493     -0.175732      1.225120
C     15.36773     10.35284     14.38384         0.284484      0.196039      1.522225
C     10.35284      6.59456      5.61067        -0.050150     -0.712635     -0.634005
C     10.62556      6.59456     15.36773        -0.091972     -0.826608      0.343933
C     10.62556     14.38384      5.61067        -0.453614      0.421965     -0.693767
C     10.35284     14.38384     15.36773        -0.152892      0.583777      0.409837
C      6.59456      5.61067     10.35284        -0.496184     -0.338071      0.045377
C      6.59456     15.36773     10.62556        -0.399074      0.471555      0.049319
C     14.38384      5.61067     10.62556         0.450751     -0.390500      0.006697
C     14.38384     15.36773     10.35284         1.121834      0.505848     -0.071306
C     10.40319      3.19606      7.29314         0.002120      0.629680     -0.338004
C     10.35913      4.25547      6.23373         0.001222     -0.445585      0.292389
C      0.08601      7.29314      7.29314        -0.013354     -0.355180     -0.494252
C      0.13007      6.23373      6.23373        -0.081402      0.821436      0.062741
C      0.08601      3.19606      3.19606        -0.001597      0.666842      0.270706
C      0.13007      4.25547      4.25547         0.021624     -0.271029     -0.516768
C     10.40319      7.29314      3.19606        -0.067583     -1.154812      0.548183
C     10.35913      6.23373      4.25547        -0.038687      0.375116     -0.192705
C      7.29314     10.40319      3.19606        -1.084213     -0.058161      0.184517
C      6.23373     10.35913      4.25547         0.363720      0.081519     -0.536273
C      7.29314      0.08601      7.29314        -0.408251      0.034327     -0.567703
C      6.23373      0.13007      6.23373         0.178902      0.132991      0.131907
C      3.19606      0.08601      3.19606         0.695450      0.024126      0.165654
C      4.25547      0.13007      4.25547        -0.168701     -0.052532     -0.366453
C      3.19606     10.40319      7.29314         0.384586     -0.024362     -0.862840
C      4.25547     10.35913      6.23373        -0.164496     -0.085445      0.096182
C      3.19606      7.29314     10.40319         0.598495     -0.384205      0.001213
C      4.25547      6.23373     10.35913        -0.121019      0.179160      0.000501
C      7.29314      7.29314      0.08601        -0.401520     -0.329987     -0.015140
C      6.23373      6.23373      0.13007         0.202556      0.194613     -0.055911
C      3.19606      3.19606      0.08601         0.291764      0.480433     -0.023075
C      4.25547      4.25547      0.13007        -0.399289     -0.226054     -0.029075
C      7.29314      3.19606     10.40319        -0.283235      0.588879     -0.014068
C      6.23373      4.25547     10.35913         0.002030     -0.129941      0.022482
O     10.43466      3.58206      8.50569        -0.030804      0.106445      0.333954
O     10.54374     17.39634      8.50569         0.067276     -0.135249      0.591048
O     10.54374      3.58206     12.47271         0.026855      0.108356     -0.389835
O     10.43466     17.39634     12.47271         0.088654     -0.046038     -0.361538
O      8.50569     10.43466      3.58206         0.715410     -0.060572      0.014935
O      8.50569     10.54374     17.39634         0.447321      0.053472     -0.069631
O     12.47271     10.54374      3.58206        -0.651985      0.112507      0.203835
O     12.47271     10.43466     17.39634        -0.290338     -0.004936      0.010865
O      3.58206      8.50569     10.43466         0.046369      0.461721     -0.064696
O     17.39634      8.50569     10.54374        -0.061962      0.463256      0.054999
O      3.58206     12.47271     10.54374         0.112756     -0.584774      0.003564
O     17.39634     12.47271     10.43466        -0.166953     -0.736517     -0.062010
O      3.58206     10.43466      8.50569         0.218050     -0.064039      0.778216
O     17.39634     10.54374      8.50569        -0.119116      0.078068      0.602772
O      3.58206     10.54374     12.47271         0.001208     -0.001257     -0.271551
O     17.39634     10.43466     12.47271         0.043626     -0.013706     -0.210133
O     10.43466      8.50569      3.58206        -0.105235      0.576745     -0.113976
O     10.54374      8.50569     17.39634         0.063567      0.502489     -0.101875
O     10.54374     12.47271      3.58206         0.104473     -0.622317      0.134513
O     10.43466     12.47271     17.39634        -0.061812     -0.622795     -0.235053
O      8.50569      3.58206     10.43466         0.399465      0.029546     -0.031381
O      8.50569     17.39634     10.54374         0.627724     -0.151988      0.050887
O     12.47271      3.58206     10.54374        -0.509451      0.126431      0.037840
O     12.47271     17.39634     10.43466        -0.621455     -0.140939      0.035400
O     11.90042     11.90042     19.56718        -0.275004     -0.308746      0.238043
O     19.56718     19.56718     19.56718         0.301582      0.319077      0.299511
O     19.56718     11.90042     11.90042         0.285210     -0.324821     -0.230386
O     11.90042     19.56718     11.90042        -0.318226      0.230420     -0.201784
O      9.45224      1.03696      9.45224        -0.084857      0.081914     -0.066630
O      1.03696      9.45224      9.45224         0.097842     -0.116509     -0.044247
O      1.03696      1.03696      1.03696         0.081146      0.054707      0.100672
O      9.45224      9.45224      1.03696        -0.059474     -0.130645      0.131233
Zr     10.48920      2.52580     10.48920         0.033366     -0.086977      0.063593
Zr     10.48920     18.45260     10.48920        -0.170042      0.262822     -0.342234
Zr     10.48920     10.48920      2.52580         0.124178      0.355108     -0.356005
Zr     10.48920     10.48920     18.45260        -0.078730     -0.188527      0.171123
Zr      2.52580     10.48920     10.48920        -0.251782      0.123808      0.217989
Zr     18.45260     10.48920     10.48920         0.230574     -0.111449      0.010081
Pd      9.38348     14.21075      9.40086         0.012505      0.051746     -0.035589
Pd      8.63384     13.71151     12.98913        -0.006925     -0.013599     -0.009957
Pd     12.01077     14.41439      8.76127         0.021230      0.007064     -0.019824
Pd     12.78623     12.79290     10.60543        -0.017155      0.034850      0.027157
Pd     12.17614      7.09697     12.60313        -0.032455      0.017989      0.018620
Pd     11.25167     14.79269     11.54372        -0.045457      0.042782     -0.036940
Pd     10.12026     12.45551     11.16435        -0.051457      0.034479     -0.070380
Pd     13.47293     12.13493      7.97064         0.014552     -0.000575      0.011209
Pd     11.46993     11.54946      6.12126         0.012373      0.006964     -0.017716
Pd      7.83766      8.59090      7.56210         0.024181     -0.033768     -0.021419
Pd      8.74629     11.72558      6.90551        -0.011904      0.002275     -0.022762
Pd     10.31459      9.45069      8.13381        -0.000406      0.019165      0.015222
Pd      8.50505     14.42345      6.88700         0.012093      0.012737     -0.039658
Pd     12.37539      9.02797      6.57381        -0.004335      0.008056      0.018674
Pd      9.73902      9.60335      5.55135         0.003352      0.003562      0.010286
Pd      6.88597      9.46454     12.19155        -0.021170      0.002405      0.002688
Pd     12.21308      6.67040      7.84480        -0.006200      0.022100      0.030266
Pd      5.96656     10.49669      9.74433        -0.017676     -0.037763     -0.028162
Pd      7.56312      7.08979     13.16692         0.029777      0.050919      0.095825
Ir     11.84097      9.68674     13.06298        -0.026719      0.009438     -0.006419
Ir     13.59819      8.97924     11.42782        -0.019942      0.004447      0.017953
Ir      9.42509      8.80643     13.80619         0.004110     -0.000310      0.065728
Ir     10.57843     10.91324     14.84473        -0.003698      0.002811      0.045881
Ir      7.31871     12.05237     11.37837        -0.010219     -0.026729      0.002008
Ir     14.70820     10.81626     10.05809        -0.007534      0.014766      0.029474
Ir     12.20915     10.45089      9.64814        -0.013378      0.045002      0.010285
Ir      8.77791     11.04643     13.04572        -0.012602      0.024014     -0.040188
Ir     10.16710      9.82800     11.25524        -0.018822      0.029366     -0.033804
Ir     13.81269     11.35189     12.37633        -0.054852      0.007958      0.030803
Ir     11.72307     12.29092     13.12279        -0.061908     -0.001295     -0.000991
Ir      8.54920     11.05734      9.40947        -0.019099      0.038068     -0.016736
Ir     11.60349      7.95769     10.04854        -0.016821      0.000735      0.010058
Ir      7.21949     12.96293      8.69315         0.030537      0.013481      0.013476
Ir      9.51190      6.99549      9.07470        -0.002133      0.029518      0.032876
Ir      8.09115      8.73435     10.11938        -0.011923     -0.026453     -0.017645
Ir     10.76864     12.07650      8.55729        -0.001643      0.011477     -0.008133
Ir      9.60307      7.38259     11.62891        -0.024608      0.036421      0.015819
Ir     13.70761      8.66540      8.78587        -0.006649      0.019915      0.010928
