152
# total energy = -1004.07148733 eVH     10.35389      5.87395      7.64558        -0.278986      0.266447      0.548278
H     10.62451     15.10445      7.64558        -0.297585     -0.131677      0.724087
H     10.62451      5.87395     13.33282         0.481047      0.028478     -0.961723
H     10.35389     15.10445     13.33282         0.071141     -0.189362     -0.502464
H      7.64558     10.35389      5.87395         0.441495      0.062352      0.083351
H      7.64558     10.62451     15.10445         0.758361      0.578989     -0.058577
H     13.33282     10.62451      5.87395        -0.447211     -0.159161      0.336615
H     13.33282     10.35389     15.10445        -0.666078     -0.128700     -0.046437
H      5.87395      7.64558     10.35389         0.099930      1.594695      0.101426
H     15.10445      7.64558     10.62451        -0.085514      0.515093      0.098734
H      5.87395     13.33282     10.62451         0.206559     -0.788991      0.091794
H     15.10445     13.33282     10.35389         0.168326     -1.356424     -0.247660
H      5.87395     10.35389      7.64558         0.071460      0.090716      0.617261
H     15.10445     10.62451      7.64558        -0.229771      0.812120      1.326234
H      5.87395     10.62451     13.33282        -0.028140      0.448292     -1.372481
H     15.10445     10.35389     13.33282         0.192134     -0.088490     -0.823477
H     10.35389      7.64558      5.87395         0.265740      1.362292      0.207045
H     10.62451      7.64558     15.10445         0.603762      0.928854     -0.050208
H     10.62451     13.33282      5.87395        -0.601048     -0.800512      0.189041
H     10.35389     13.33282     15.10445        -0.091830     -0.505473     -0.262624
H      7.64558      5.87395     10.35389         1.178542     -0.278776     -0.313720
H      7.64558     15.10445     10.62451         0.671171     -0.206284     -0.010252
H     13.33282      5.87395     10.62451        -0.664308      0.099839      0.551558
H     13.33282     15.10445     10.35389        -0.321725     -0.063439     -0.082202
H     12.45634     12.45634     19.01126         0.269037      0.243664     -0.235685
H     19.01126     19.01126     19.01126        -0.265579     -0.275269     -0.213402
H     19.01126     12.45634     12.45634        -0.270740      0.255785      0.233824
H     12.45634     19.01126     12.45634         0.258227     -0.280903      0.225946
C     10.35284      5.61067      6.59456        -0.095859     -0.814611     -0.706568
C     10.62556     15.36773      6.59456         0.134632      0.374877     -0.238518
C     10.62556      5.61067     14.38384        -0.069289     -0.706115      0.643033
C     10.35284     15.36773     14.38384        -0.012268      0.214475      0.504017
C      6.59456     10.35284      5.61067        -0.687087      0.083569     -0.503914
C      6.59456     10.62556     15.36773        -0.911309      0.199951      0.760653
C     14.38384     10.62556      5.61067         0.991420      0.032391     -1.024193
C     14.38384     10.35284     15.36773         0.975470     -0.058516      0.537886
C      5.61067      6.59456     10.35284        -0.799032     -0.748929     -0.480815
C     15.36773      6.59456     10.62556         0.736602      0.030815     -0.196746
C      5.61067     14.38384     10.62556        -0.238394      0.967374     -0.039060
C     15.36773     14.38384     10.35284         0.319291      1.451191     -0.105174
C      5.61067     10.35284      6.59456        -0.318878     -0.018396     -0.752781
C     15.36773     10.62556      6.59456         0.403886     -0.425131     -0.886922
C      5.61067     10.62556     14.38384        -0.341191     -0.057107      1.089905
C     15.36773     10.35284     14.38384         0.261656     -0.004496      0.998834
C     10.35284      6.59456      5.61067        -0.031104     -1.070379     -0.291147
C     10.62556      6.59456     15.36773         0.014005     -0.815197      0.655890
C     10.62556     14.38384      5.61067         0.100265      0.908988     -0.481548
C     10.35284     14.38384     15.36773        -0.022922      0.667155      0.325358
C      6.59456      5.61067     10.35284        -0.711474     -1.134963      0.150289
C      6.59456     15.36773     10.62556        -0.711769      0.149858      0.074190
C     14.38384      5.61067     10.62556        -0.043299     -0.502662     -0.373163
C     14.38384     15.36773     10.35284         0.042802      0.584029     -0.058106
C     10.40319      3.19606      7.29314         0.000840      0.519259     -0.805021
C     10.35913      4.25547      6.23373        -0.007330     -0.457477      0.126048
C      0.08601      7.29314      7.29314        -0.035917     -1.057343     -0.273541
C      0.13007      6.23373      6.23373        -0.039511      0.423133      0.489411
C      0.08601      3.19606      3.19606         0.032770      1.152673      0.225563
C      0.13007      4.25547      4.25547         0.002380     -0.437444     -0.440976
C     10.40319      7.29314      3.19606        -0.020245     -0.637862      0.193124
C     10.35913      6.23373      4.25547        -0.047706      0.127827     -0.661877
C      7.29314     10.40319      3.19606        -0.413955      0.016330      0.229260
C      6.23373     10.35913      4.25547         0.194774      0.046762     -0.126172
C      7.29314      0.08601      7.29314        -1.224044     -0.075580     -0.410746
C      6.23373      0.13007      6.23373         0.668271     -0.185414      0.350552
C      3.19606      0.08601      3.19606         1.223986     -0.016270      0.247033
C      4.25547      0.13007      4.25547        -0.612460     -0.116352     -0.200074
C      3.19606     10.40319      7.29314         0.505902      0.030693     -0.258206
C      4.25547     10.35913      6.23373        -0.222271      0.046637      0.165676
C      3.19606      7.29314     10.40319         0.276814     -0.525890      0.056086
C      4.25547      6.23373     10.35913        -0.901161     -0.028536      0.151820
C      7.29314      7.29314      0.08601        -0.453679     -0.434311     -0.019874
C      6.23373      6.23373      0.13007         0.463505      0.275200      0.071159
C      3.19606      3.19606      0.08601         0.608618      0.471536     -0.020742
C      4.25547      4.25547      0.13007        -0.152610     -0.809060     -0.090089
C      7.29314      3.19606     10.40319        -0.353732      0.444627      0.053366
C      6.23373      4.25547     10.35913         0.555233     -0.677428      0.184803
O     10.43466      3.58206      8.50569         0.051960      0.244177      0.718154
O     10.54374     17.39634      8.50569         0.054263     -0.027070      0.315824
O     10.54374      3.58206     12.47271         0.003605     -0.033741     -0.259843
O     10.43466     17.39634     12.47271        -0.031442     -0.089101     -0.352413
O      8.50569     10.43466      3.58206         0.575419     -0.045602      0.151308
O      8.50569     10.54374     17.39634         0.876782     -0.080327     -0.152564
O     12.47271     10.54374      3.58206        -0.879394      0.144035      0.121645
O     12.47271     10.43466     17.39634        -0.576670      0.033605     -0.186923
O      3.58206      8.50569     10.43466         0.185223      0.630666     -0.042504
O     17.39634      8.50569     10.54374        -0.146863      0.618798      0.020306
O      3.58206     12.47271     10.54374         0.120391     -0.566741      0.043980
O     17.39634     12.47271     10.43466        -0.179468     -0.561232     -0.055102
O      3.58206     10.43466      8.50569         0.103687     -0.040569      0.388671
O     17.39634     10.54374      8.50569         0.062692      0.100434      0.331127
O      3.58206     10.54374     12.47271        -0.030181      0.026226     -0.219628
O     17.39634     10.43466     12.47271        -0.115253     -0.030153     -0.397994
O     10.43466      8.50569      3.58206        -0.046233      0.665996      0.188178
O     10.54374      8.50569     17.39634        -0.087355      0.815358     -0.144335
O     10.54374     12.47271      3.58206         0.129914     -0.921456      0.167830
O     10.43466     12.47271     17.39634         0.000753     -0.406717     -0.042184
O      8.50569      3.58206     10.43466         0.551882      0.146595     -0.051185
O      8.50569     17.39634     10.54374         0.579922     -0.164180      0.018770
O     12.47271      3.58206     10.54374        -0.710261      0.123557      0.023572
O     12.47271     17.39634     10.43466        -0.509103     -0.127664     -0.030817
O     11.90042     11.90042     19.56718        -0.319162     -0.268483      0.250225
O     19.56718     19.56718     19.56718         0.292830      0.324753      0.208849
O     19.56718     11.90042     11.90042         0.344018     -0.287850     -0.247440
O     11.90042     19.56718     11.90042        -0.284354      0.349600     -0.215283
O      9.45224      1.03696      9.45224        -0.045246      0.102059     -0.115692
O      1.03696      9.45224      9.45224         0.071138     -0.032429     -0.100498
O      1.03696      1.03696      1.03696         0.059991      0.082122      0.113876
O      9.45224      9.45224      1.03696        -0.032341     -0.024144      0.104105
Zr     10.48920      2.52580     10.48920        -0.093112     -0.224712      0.171523
Zr     10.48920     18.45260     10.48920         0.026825      0.057801      0.056742
Zr     10.48920     10.48920      2.52580        -0.311945     -0.192695     -0.420741
Zr     10.48920     10.48920     18.45260         0.196823      0.031176      0.317218
Zr      2.52580     10.48920     10.48920        -0.130487     -0.055205     -0.074419
Zr     18.45260     10.48920     10.48920         0.104140     -0.035731      0.128969
Pd     12.63888      8.20366      9.72665        -0.088543      0.094176     -0.062341
Pd      6.85787      9.60845     10.51943         0.005814      0.001691     -0.068165
Pd      6.89925     11.79709     11.96376         0.111464     -0.010989      0.038939
Pd     12.26737     13.57372      7.29448        -0.039618     -0.085581      0.083060
Pd     12.15949      7.95388      7.04845        -0.069768     -0.046377      0.092361
Pd      8.55439      7.43696      6.97053         0.033919     -0.023975     -0.038856
Pd     11.62538     11.52714      5.67038        -0.066346     -0.006045      0.073152
Pd     14.55909      8.82197      7.84919        -0.086320     -0.003300     -0.021568
Pd      9.93524     11.78408      7.80343         0.032115      0.088095      0.108400
Pd      7.14541      7.12276     11.98115        -0.004864      0.055671      0.006837
Pd      6.43694      7.81510      8.45233        -0.021277     -0.011070      0.134474
Pd      7.28370      9.21309     13.49182         0.019218      0.072448      0.041893
Pd     11.29106      6.05981      9.22518         0.069771     -0.066812     -0.088104
Pd     10.01068      9.61475      6.25318        -0.095464     -0.023186     -0.091878
Pd      9.12678     13.85592      9.27681        -0.040567      0.068549     -0.001601
Pd     10.82065      7.05744     11.55688        -0.026788      0.155218      0.096703
Pd     10.32419      9.09658      8.86702         0.336773     -0.025791      0.148441
Pd      9.24297     11.43086     10.41311        -0.021000      0.103934     -0.097521
Pd      8.81796      7.24324      9.67164        -0.035988     -0.200806      0.090908
Pd      9.02278      7.24143     13.77896        -0.071356      0.026864     -0.025275
Pd      9.17598      9.10259     11.58319        -0.039633     -0.221256     -0.008216
Pd     12.40076     10.59494      8.10511        -0.096111     -0.032879      0.002519
Pd      6.94449     12.08948      9.26809         0.061449     -0.092874     -0.044301
Pd      8.06020      9.93295      8.15855        -0.201592      0.083083     -0.033210
Pd     13.96795      6.30858      8.47147        -0.051743     -0.017491      0.023223
Pd     13.27317      7.96938     12.23542         0.008170      0.140653      0.012571
Pd      9.18230     11.25029     13.22155        -0.109319      0.090100     -0.025673
Pd     14.10741     12.46569      8.78021         0.066641     -0.018510      0.048107
Pd     13.20139     10.61295     12.84952         0.120837      0.064522      0.081799
Pd     14.24246     10.19978     10.30032         0.031560      0.099462      0.013660
Pd     11.57276     10.31026     10.88795         0.014382     -0.074833     -0.166125
Pd     11.54932     12.89433      9.75263         0.015424     -0.025501     -0.046691
Pd     13.72663     12.70850     11.47345        -0.058831      0.090316     -0.068173
Pd     11.27177     12.55897     12.31320         0.018840      0.109653      0.042408
Pd     11.41542     11.42312     14.71302         0.026472      0.028373      0.121992
Pd     11.12942      9.09294     13.36102        -0.066905     -0.100003     -0.068553
Pd      9.48934      9.61704     15.33580        -0.038061     -0.026261     -0.027453
Pd      8.92126     13.65351     11.95523        -0.029188      0.021543     -0.001316
