152
# total energy = -1060.12869797 eVH     10.35389      5.87395      7.64558        -0.280614      0.056209      1.118676
H     10.62451     15.10445      7.64558         0.114619     -0.087594      0.908928
H     10.62451      5.87395     13.33282        -0.264752      0.080924     -0.786607
H     10.35389     15.10445     13.33282         0.106537     -0.300225     -0.857794
H      7.64558     10.35389      5.87395         0.930640     -0.151748      0.191725
H      7.64558     10.62451     15.10445         0.317433     -0.028183     -0.073071
H     13.33282     10.62451      5.87395        -0.860386      0.196418      0.204984
H     13.33282     10.35389     15.10445        -0.282078     -0.016873     -0.064736
H      5.87395      7.64558     10.35389         0.087887      0.418427     -0.004351
H     15.10445      7.64558     10.62451        -0.017291      0.488358     -0.021226
H      5.87395     13.33282     10.62451        -0.010162     -0.958624      0.083169
H     15.10445     13.33282     10.35389        -0.098945     -0.326286      0.005475
H      5.87395     10.35389      7.64558         0.287322      0.107206      0.401207
H     15.10445     10.62451      7.64558        -0.123290     -0.168057      0.672894
H      5.87395     10.62451     13.33282        -0.082455      0.463332     -0.629490
H     15.10445     10.35389     13.33282         0.240521     -0.603396     -0.857306
H     10.35389      7.64558      5.87395        -0.036352      0.485447      0.335718
H     10.62451      7.64558     15.10445         0.270180      0.771993     -0.033797
H     10.62451     13.33282      5.87395         0.123170     -0.577898      0.212407
H     10.35389     13.33282     15.10445         0.042110     -0.293050     -0.145556
H      7.64558      5.87395     10.35389         0.353508      0.104697      0.037312
H      7.64558     15.10445     10.62451         0.384856     -0.120498      0.171758
H     13.33282      5.87395     10.62451        -0.317257      0.132083     -0.029846
H     13.33282     15.10445     10.35389        -0.651337     -0.134820      0.153348
H     12.45634     12.45634     19.01126         0.256834      0.271707     -0.227331
H     19.01126     19.01126     19.01126        -0.247829     -0.267424     -0.244334
H     19.01126     12.45634     12.45634        -0.249946      0.270138      0.235567
H     12.45634     19.01126     12.45634         0.290630     -0.235128      0.235272
C     10.35284      5.61067      6.59456         0.399577     -0.408139     -1.411939
C     10.62556     15.36773      6.59456        -0.164770      0.596382     -0.655198
C     10.62556      5.61067     14.38384         0.379252     -0.321102      0.832181
C     10.35284     15.36773     14.38384        -0.218797      0.241286      1.067429
C      6.59456     10.35284      5.61067        -1.374794      0.023471     -0.225077
C      6.59456     10.62556     15.36773        -0.629102      0.063414      0.356558
C     14.38384     10.62556      5.61067         1.319234     -0.172002     -0.638678
C     14.38384     10.35284     15.36773         0.349414     -0.129849      0.364722
C      5.61067      6.59456     10.35284        -0.280582     -0.651784     -0.023790
C     15.36773      6.59456     10.62556         0.421357     -0.936131      0.027084
C      5.61067     14.38384     10.62556        -0.145913      1.162601     -0.178306
C     15.36773     14.38384     10.35284         0.463913      0.663574     -0.028967
C      5.61067     10.35284      6.59456        -0.367901     -0.099565     -0.720159
C     15.36773     10.62556      6.59456         0.395695      0.117830     -0.704063
C      5.61067     10.62556     14.38384        -0.369032     -0.167815      1.234662
C     15.36773     10.35284     14.38384         0.242026      0.197460      1.434795
C     10.35284      6.59456      5.61067        -0.057445     -0.719683     -0.576841
C     10.62556      6.59456     15.36773        -0.112272     -0.914697      0.349008
C     10.62556     14.38384      5.61067        -0.482087      0.414765     -0.714291
C     10.35284     14.38384     15.36773        -0.157784      0.603763      0.423529
C      6.59456      5.61067     10.35284        -0.518307     -0.330435      0.020296
C      6.59456     15.36773     10.62556        -0.359477      0.436911      0.062902
C     14.38384      5.61067     10.62556         0.451306     -0.366063      0.001154
C     14.38384     15.36773     10.35284         1.116277      0.484419     -0.078813
C     10.40319      3.19606      7.29314        -0.002593      0.728629     -0.346622
C     10.35913      4.25547      6.23373         0.015431     -0.414672      0.292033
C      0.08601      7.29314      7.29314        -0.013982     -0.387309     -0.504784
C      0.13007      6.23373      6.23373        -0.066154      0.847005      0.069865
C      0.08601      3.19606      3.19606        -0.003370      0.687073      0.264915
C      0.13007      4.25547      4.25547         0.039219     -0.272996     -0.548121
C     10.40319      7.29314      3.19606        -0.065278     -1.145258      0.603315
C     10.35913      6.23373      4.25547        -0.041200      0.362313     -0.201848
C      7.29314     10.40319      3.19606        -1.084722     -0.055514      0.202366
C      6.23373     10.35913      4.25547         0.371124      0.089163     -0.549763
C      7.29314      0.08601      7.29314        -0.465954      0.030811     -0.487468
C      6.23373      0.13007      6.23373         0.183092      0.123184      0.124379
C      3.19606      0.08601      3.19606         0.695601      0.023109      0.164830
C      4.25547      0.13007      4.25547        -0.176680     -0.054279     -0.355647
C      3.19606     10.40319      7.29314         0.407630     -0.027467     -0.904558
C      4.25547     10.35913      6.23373        -0.149575     -0.071478      0.105652
C      3.19606      7.29314     10.40319         0.613339     -0.399849      0.003023
C      4.25547      6.23373     10.35913        -0.111362      0.182724      0.000977
C      7.29314      7.29314      0.08601        -0.415426     -0.307796     -0.014053
C      6.23373      6.23373      0.13007         0.172080      0.183776     -0.073305
C      3.19606      3.19606      0.08601         0.290368      0.481931     -0.023056
C      4.25547      4.25547      0.13007        -0.409216     -0.234462     -0.033734
C      7.29314      3.19606     10.40319        -0.278291      0.596867     -0.009662
C      6.23373      4.25547     10.35913         0.005720     -0.110614      0.020415
O     10.43466      3.58206      8.50569        -0.028863      0.081989      0.310490
O     10.54374     17.39634      8.50569         0.060500     -0.122981      0.582856
O     10.54374      3.58206     12.47271         0.028472      0.105551     -0.394029
O     10.43466     17.39634     12.47271         0.091080     -0.049967     -0.404654
O      8.50569     10.43466      3.58206         0.707547     -0.062490      0.010937
O      8.50569     10.54374     17.39634         0.519178      0.060226     -0.087000
O     12.47271     10.54374      3.58206        -0.649312      0.119773      0.206256
O     12.47271     10.43466     17.39634        -0.289876     -0.004192      0.027627
O      3.58206      8.50569     10.43466         0.037056      0.458470     -0.070817
O     17.39634      8.50569     10.54374        -0.059537      0.448782      0.057692
O      3.58206     12.47271     10.54374         0.115641     -0.583181      0.001423
O     17.39634     12.47271     10.43466        -0.178986     -0.748026     -0.051957
O      3.58206     10.43466      8.50569         0.206204     -0.060035      0.784289
O     17.39634     10.54374      8.50569        -0.079658      0.073373      0.515109
O      3.58206     10.54374     12.47271        -0.003017     -0.001688     -0.266192
O     17.39634     10.43466     12.47271         0.033057     -0.011647     -0.236523
O     10.43466      8.50569      3.58206        -0.105063      0.562676     -0.114339
O     10.54374      8.50569     17.39634         0.068647      0.514269     -0.082656
O     10.54374     12.47271      3.58206         0.104053     -0.625884      0.131633
O     10.43466     12.47271     17.39634        -0.055733     -0.684568     -0.270481
O      8.50569      3.58206     10.43466         0.392242      0.024464     -0.039529
O      8.50569     17.39634     10.54374         0.630805     -0.155570      0.046478
O     12.47271      3.58206     10.54374        -0.507780      0.126456      0.034399
O     12.47271     17.39634     10.43466        -0.623512     -0.129310      0.042748
O     11.90042     11.90042     19.56718        -0.273350     -0.304714      0.230940
O     19.56718     19.56718     19.56718         0.304835      0.317277      0.298771
O     19.56718     11.90042     11.90042         0.283705     -0.323708     -0.232534
O     11.90042     19.56718     11.90042        -0.315734      0.229005     -0.203078
O      9.45224      1.03696      9.45224        -0.087806      0.093370     -0.063643
O      1.03696      9.45224      9.45224         0.109156     -0.121814     -0.046346
O      1.03696      1.03696      1.03696         0.083782      0.058562      0.096304
O      9.45224      9.45224      1.03696        -0.062342     -0.131367      0.132125
Zr     10.48920      2.52580     10.48920         0.032160     -0.097103      0.090126
Zr     10.48920     18.45260     10.48920        -0.172878      0.258501     -0.345863
Zr     10.48920     10.48920      2.52580         0.120956      0.351927     -0.343087
Zr     10.48920     10.48920     18.45260        -0.083372     -0.212425      0.198742
Zr      2.52580     10.48920     10.48920        -0.257272      0.125421      0.235615
Zr     18.45260     10.48920     10.48920         0.221667     -0.121647     -0.016332
Pd      9.39523     14.29200      9.32642        -0.003018      0.039933     -0.043794
Pd      8.61473     13.69336     13.00410        -0.005856     -0.009307      0.026213
Pd     12.04428     14.40482      8.74670         0.011628     -0.017881      0.010073
Pd     12.74285     12.82091     10.66126        -0.037303      0.003691      0.048993
Pd     12.14709      7.11361     12.61588         0.000136     -0.003226     -0.002253
Pd     11.19204     14.86403     11.48069        -0.026269      0.042022     -0.032346
Pd     10.04810     12.53255     11.08116        -0.045074      0.053498     -0.051100
Pd     13.48952     12.14307      7.98669         0.012047      0.012405      0.007028
Pd     11.48635     11.56176      6.10773         0.008270      0.006640     -0.005126
Pd      7.86454      8.52386      7.53899         0.010125     -0.045383     -0.006537
Pd      8.73055     11.73793      6.87279        -0.010232      0.012424     -0.015427
Pd     10.30276      9.46201      8.14677        -0.011205     -0.007372      0.003000
Pd      8.49945     14.44454      6.81899        -0.014029      0.013569     -0.032202
Pd     12.36738      9.04229      6.59593         0.000350      0.012980      0.015070
Pd      9.74438      9.61467      5.55504        -0.000178      0.007119      0.002358
Pd      6.87262      9.46398     12.18934         0.005802      0.005967      0.002248
Pd     12.21075      6.70144      7.88644         0.001988      0.013792      0.016942
Pd      5.94182     10.45359      9.72906        -0.011084     -0.009558      0.003513
Pd      7.57404      7.15199     13.29265        -0.004471      0.019798      0.038216
Ir     11.76887      9.69449     13.06246        -0.046556     -0.007840      0.011364
Ir     13.56558      9.00966     11.45464        -0.018321      0.027270      0.007280
Ir      9.41157      8.83666     13.92842        -0.018479      0.011133      0.054807
Ir     10.54561     10.88773     14.92965        -0.023693     -0.042806      0.067245
Ir      7.28437     12.01948     11.36525        -0.004407     -0.014517     -0.008638
Ir     14.67506     10.86693     10.13549        -0.032250      0.037001      0.055753
Ir     12.19841     10.49918      9.64746         0.011208      0.012367     -0.016238
Ir      8.81086     11.04559     13.00258         0.047315      0.018430     -0.016395
Ir     10.13783      9.87783     11.18653        -0.007932      0.026247     -0.051739
Ir     13.72109     11.37043     12.45900        -0.058945      0.004349      0.062707
Ir     11.56864     12.27147     13.11453        -0.118183     -0.030771      0.008623
Ir      8.52140     11.07957      9.36569        -0.023990      0.016994     -0.026599
Ir     11.60144      7.98050     10.08076         0.007639      0.010596      0.016049
Ir      7.24669     13.01799      8.70291         0.009451      0.017349      0.005827
Ir      9.52346      6.99664      9.13560         0.004202     -0.005263      0.040470
Ir      8.06411      8.75148     10.09423        -0.005235      0.007546     -0.009418
Ir     10.75473     12.09782      8.52375        -0.010333      0.008439     -0.025298
Ir      9.56274      7.48895     11.68907        -0.010233      0.053807      0.035266
Ir     13.70642      8.71436      8.81856         0.007321      0.020148      0.028222
