40
# total energy = -344.67288325 eVC      1.19780      4.91617      7.50000         0.102649      0.034822      0.000000
C     13.92910      3.44709      7.50000        -0.102649     -0.034822     -0.000000
C     13.92910      4.91617      7.50000        -0.102649      0.034822     -0.000000
C      1.19780      3.44709      7.50000         0.102649     -0.034822      0.000000
C      8.76125      0.73454      7.50000         0.102649      0.034822      0.000000
C      6.36565      7.62872      7.50000        -0.102649     -0.034822     -0.000000
C      6.36565      0.73454      7.50000        -0.102649      0.034822     -0.000000
C      8.76125      7.62872      7.50000         0.102649     -0.034822      0.000000
C      2.49316      2.77882      7.50000        -0.071782     -0.439190      0.000000
C     12.63374      5.58444      7.50000         0.071782      0.439190     -0.000000
C     12.63374      2.77882      7.50000         0.071782     -0.439190     -0.000000
C      2.49316      5.58444      7.50000        -0.071782      0.439190     -0.000000
C     10.05661      6.96045      7.50000        -0.071782     -0.439190     -0.000000
C      5.07029      1.40281      7.50000         0.071782      0.439190      0.000000
C      5.07029      6.96045      7.50000         0.071782     -0.439190     -0.000000
C     10.05661      1.40281      7.50000        -0.071782      0.439190     -0.000000
C      3.73118      4.88604      7.50000         0.186317      0.308841      0.000000
C     11.39572      3.47722      7.50000        -0.186317     -0.308841     -0.000000
C     11.39572      4.88604      7.50000        -0.186317      0.308841      0.000000
C      3.73118      3.47722      7.50000         0.186317     -0.308841      0.000000
C     11.29463      0.70441      7.50000         0.186317      0.308841      0.000000
C      3.83227      7.65885      7.50000        -0.186317     -0.308841      0.000000
C      3.83227      0.70441      7.50000        -0.186317      0.308841     -0.000000
C     11.29463      7.65885      7.50000         0.186317     -0.308841      0.000000
N      2.60375      6.96727      7.50000        -0.036016      0.126477      0.000000
N     12.52315      1.39599      7.50000         0.036016     -0.126477      0.000000
N     12.52315      6.96727      7.50000         0.036016      0.126477     -0.000000
N      2.60375      1.39599      7.50000        -0.036016     -0.126477     -0.000000
N     10.16720      2.78564      7.50000        -0.036016      0.126477      0.000000
N      4.95970      5.57762      7.50000         0.036016     -0.126477     -0.000000
N      4.95970      2.78564      7.50000         0.036016      0.126477     -0.000000
N     10.16720      5.57762      7.50000        -0.036016     -0.126477     -0.000000
N      7.56345      6.89466      7.50000        -0.000000      0.084624     -0.000000
N      7.56345      1.46860      7.50000        -0.000000     -0.084624      0.000000
N     -0.00000      2.71303      7.50000        -0.000000      0.084624     -0.000000
N     -0.00000      5.65023      7.50000        -0.000000     -0.084624      0.000000
Zr     14.11991      0.00000      7.50000        -0.799573     -0.000000     -0.000000
Zr      1.00699      0.00000      7.50000         0.799573     -0.000000     -0.000000
Zr      6.55646      4.18163      7.50000        -0.799573     -0.000000     -0.000000
Zr      8.57044      4.18163      7.50000         0.799573     -0.000000     -0.000000
