152
# total energy = -1060.22886778 eVH     10.35389      5.87395      7.64558        -0.195977      0.120249      1.014512
H     10.62451     15.10445      7.64558         0.235384     -0.084394      0.831255
H     10.62451      5.87395     13.33282        -0.266088      0.082773     -0.740897
H     10.35389     15.10445     13.33282         0.129699     -0.285206     -0.785820
H      7.64558     10.35389      5.87395         0.894307     -0.231671      0.205369
H      7.64558     10.62451     15.10445         0.285124     -0.012822     -0.063807
H     13.33282     10.62451      5.87395        -0.843713      0.146817      0.198136
H     13.33282     10.35389     15.10445        -0.291764     -0.045009     -0.050942
H      5.87395      7.64558     10.35389         0.097782      0.423554     -0.003104
H     15.10445      7.64558     10.62451        -0.066976      0.456060      0.032334
H      5.87395     13.33282     10.62451         0.008175     -0.929947      0.092494
H     15.10445     13.33282     10.35389        -0.136466     -0.355766      0.013264
H      5.87395     10.35389      7.64558         0.316944      0.054824      0.363591
H     15.10445     10.62451      7.64558        -0.121734     -0.139282      0.618782
H      5.87395     10.62451     13.33282        -0.061673      0.436931     -0.643840
H     15.10445     10.35389     13.33282         0.189739     -0.529200     -0.929833
H     10.35389      7.64558      5.87395         0.005055      0.478943      0.331322
H     10.62451      7.64558     15.10445         0.355685      0.812498     -0.027013
H     10.62451     13.33282      5.87395         0.114402     -0.565187      0.197571
H     10.35389     13.33282     15.10445         0.069528     -0.318703     -0.156017
H      7.64558      5.87395     10.35389         0.380050      0.122863      0.058053
H      7.64558     15.10445     10.62451         0.380599     -0.131161      0.192055
H     13.33282      5.87395     10.62451        -0.311964      0.134267     -0.007831
H     13.33282     15.10445     10.35389        -0.663922     -0.149163      0.190052
H     12.45634     12.45634     19.01126         0.263103      0.271954     -0.221897
H     19.01126     19.01126     19.01126        -0.252667     -0.266153     -0.240271
H     19.01126     12.45634     12.45634        -0.245704      0.272411      0.236933
H     12.45634     19.01126     12.45634         0.292623     -0.230872      0.236282
C     10.35284      5.61067      6.59456         0.356805     -0.389455     -1.332797
C     10.62556     15.36773      6.59456        -0.216208      0.646230     -0.681568
C     10.62556      5.61067     14.38384         0.359310     -0.272063      0.737253
C     10.35284     15.36773     14.38384        -0.187661      0.294167      0.960475
C      6.59456     10.35284      5.61067        -1.343876      0.023641     -0.195006
C      6.59456     10.62556     15.36773        -0.623930      0.064206      0.352209
C     14.38384     10.62556      5.61067         1.393077     -0.177907     -0.630105
C     14.38384     10.35284     15.36773         0.336307     -0.134310      0.379856
C      5.61067      6.59456     10.35284        -0.266118     -0.639288     -0.022311
C     15.36773      6.59456     10.62556         0.407822     -0.842020     -0.015449
C      5.61067     14.38384     10.62556        -0.160386      1.116343     -0.179290
C     15.36773     14.38384     10.35284         0.470724      0.714662     -0.041254
C      5.61067     10.35284      6.59456        -0.362831     -0.121763     -0.744530
C     15.36773     10.62556      6.59456         0.352702      0.122527     -0.607320
C      5.61067     10.62556     14.38384        -0.356622     -0.145623      1.238337
C     15.36773     10.35284     14.38384         0.182400      0.224718      1.350711
C     10.35284      6.59456      5.61067        -0.068083     -0.695486     -0.461368
C     10.62556      6.59456     15.36773        -0.152212     -1.042953      0.372510
C     10.62556     14.38384      5.61067        -0.498088      0.374292     -0.721825
C     10.35284     14.38384     15.36773        -0.164180      0.677215      0.494859
C      6.59456      5.61067     10.35284        -0.551521     -0.327157      0.016316
C      6.59456     15.36773     10.62556        -0.310834      0.432506      0.077580
C     14.38384      5.61067     10.62556         0.441986     -0.312845      0.008354
C     14.38384     15.36773     10.35284         1.135520      0.452626     -0.111881
C     10.40319      3.19606      7.29314        -0.011670      0.891289     -0.350913
C     10.35913      4.25547      6.23373         0.015991     -0.339394      0.315280
C      0.08601      7.29314      7.29314        -0.020876     -0.442492     -0.502193
C      0.13007      6.23373      6.23373        -0.060138      0.828337      0.096347
C      0.08601      3.19606      3.19606        -0.009363      0.656275      0.251514
C      0.13007      4.25547      4.25547         0.062814     -0.256160     -0.552384
C     10.40319      7.29314      3.19606        -0.060345     -1.074834      0.679173
C     10.35913      6.23373      4.25547        -0.059739      0.323639     -0.184134
C      7.29314     10.40319      3.19606        -1.087603     -0.053867      0.224499
C      6.23373     10.35913      4.25547         0.383801      0.108922     -0.538320
C      7.29314      0.08601      7.29314        -0.594382      0.020953     -0.391875
C      6.23373      0.13007      6.23373         0.169254      0.102898      0.100969
C      3.19606      0.08601      3.19606         0.665519      0.010552      0.171608
C      4.25547      0.13007      4.25547        -0.190765     -0.074394     -0.335928
C      3.19606     10.40319      7.29314         0.470644     -0.028645     -0.946249
C      4.25547     10.35913      6.23373        -0.137127     -0.043895      0.144119
C      3.19606      7.29314     10.40319         0.671216     -0.380277      0.008122
C      4.25547      6.23373     10.35913        -0.117870      0.183685      0.001782
C      7.29314      7.29314      0.08601        -0.446325     -0.291232     -0.011365
C      6.23373      6.23373      0.13007         0.154703      0.136178     -0.093836
C      3.19606      3.19606      0.08601         0.318601      0.523972     -0.016164
C      4.25547      4.25547      0.13007        -0.422798     -0.258246     -0.028252
C      7.29314      3.19606     10.40319        -0.288155      0.596645     -0.004504
C      6.23373      4.25547     10.35913         0.008458     -0.124191      0.019590
O     10.43466      3.58206      8.50569        -0.028460      0.047074      0.253568
O     10.54374     17.39634      8.50569         0.059559     -0.100212      0.547740
O     10.54374      3.58206     12.47271         0.032161      0.110510     -0.411627
O     10.43466     17.39634     12.47271         0.094029     -0.062052     -0.456996
O      8.50569     10.43466      3.58206         0.721229     -0.069408      0.023164
O      8.50569     10.54374     17.39634         0.652625      0.064229     -0.107974
O     12.47271     10.54374      3.58206        -0.623017      0.124787      0.211826
O     12.47271     10.43466     17.39634        -0.340466      0.000732      0.032725
O      3.58206      8.50569     10.43466         0.025286      0.428803     -0.066831
O     17.39634      8.50569     10.54374        -0.056048      0.444382      0.059527
O      3.58206     12.47271     10.54374         0.114429     -0.613059     -0.000527
O     17.39634     12.47271     10.43466        -0.197568     -0.743722     -0.039032
O      3.58206     10.43466      8.50569         0.204173     -0.045175      0.790529
O     17.39634     10.54374      8.50569        -0.022691      0.068315      0.404928
O      3.58206     10.54374     12.47271         0.003089     -0.001670     -0.280742
O     17.39634     10.43466     12.47271         0.020338     -0.010354     -0.253296
O     10.43466      8.50569      3.58206        -0.111658      0.514870     -0.094187
O     10.54374      8.50569     17.39634         0.056774      0.544157     -0.077150
O     10.54374     12.47271      3.58206         0.096017     -0.599030      0.124536
O     10.43466     12.47271     17.39634        -0.052034     -0.785363     -0.318482
O      8.50569      3.58206     10.43466         0.398716      0.024711     -0.054265
O      8.50569     17.39634     10.54374         0.645245     -0.153891      0.039258
O     12.47271      3.58206     10.54374        -0.525098      0.117712      0.022439
O     12.47271     17.39634     10.43466        -0.653026     -0.124498      0.046838
O     11.90042     11.90042     19.56718        -0.277518     -0.296175      0.214391
O     19.56718     19.56718     19.56718         0.313328      0.315939      0.290629
O     19.56718     11.90042     11.90042         0.278846     -0.322894     -0.240701
O     11.90042     19.56718     11.90042        -0.314926      0.223101     -0.207385
O      9.45224      1.03696      9.45224        -0.085732      0.108275     -0.071764
O      1.03696      9.45224      9.45224         0.120575     -0.123381     -0.059136
O      1.03696      1.03696      1.03696         0.088509      0.066411      0.079318
O      9.45224      9.45224      1.03696        -0.070464     -0.135695      0.127509
Zr     10.48920      2.52580     10.48920         0.044555     -0.121101      0.162835
Zr     10.48920     18.45260     10.48920        -0.191020      0.258194     -0.345557
Zr     10.48920     10.48920      2.52580         0.132972      0.367011     -0.300955
Zr     10.48920     10.48920     18.45260        -0.080307     -0.260322      0.294630
Zr      2.52580     10.48920     10.48920        -0.262374      0.113985      0.266988
Zr     18.45260     10.48920     10.48920         0.186527     -0.144601     -0.037921
Pd      9.36031     14.38746      9.21758         0.024512      0.021379      0.092076
Pd      8.61470     13.62375     13.12185         0.063226      0.064833      0.019318
Pd     12.06946     14.39231      8.78665        -0.168389      0.078693     -0.057833
Pd     12.66281     12.85268     10.75338        -0.112887     -0.201146      0.158603
Pd     12.15016      7.18729     12.66930        -0.096444     -0.089694     -0.005633
Pd     11.14432     14.98350     11.40528        -0.091764     -0.043383     -0.027201
Pd      9.92874     12.66792     10.98762         0.160243     -0.013459      0.264703
Pd     13.49334     12.22455      7.99642         0.160588     -0.063531      0.050342
Pd     11.53526     11.58119      6.13693        -0.082541      0.115524     -0.203213
Pd      7.91813      8.29498      7.48700         0.020369     -0.024773      0.024126
Pd      8.71036     11.74528      6.85271        -0.007051      0.061718     -0.105293
Pd     10.24141      9.43157      8.18875        -0.074589      0.076149     -0.084171
Pd      8.47576     14.45588      6.74369        -0.048570     -0.021209     -0.144198
Pd     12.34990      9.09821      6.69788         0.064143     -0.019394      0.045571
Pd      9.76232      9.66029      5.56299         0.008715     -0.085017      0.043113
Pd      6.87335      9.47402     12.16488        -0.047164     -0.120633     -0.104375
Pd     12.23000      6.78153      8.01836        -0.000629     -0.249007     -0.269005
Pd      5.93006     10.52935      9.69698        -0.136138     -0.062448      0.086519
Pd      7.51338      7.20165     13.35110         0.137192      0.031743      0.052595
Ir     11.67277      9.75028     13.07368        -0.214327     -0.055591      0.122409
Ir     13.51890      9.10724     11.50081        -0.089816     -0.081224      0.072988
Ir      9.39759      8.83544     14.04034        -0.138819      0.034791     -0.247897
Ir     10.48920     10.90981     15.04069        -0.075587     -0.166484     -0.094153
Ir      7.28021     12.00071     11.40142        -0.035011      0.060665     -0.285283
Ir     14.60377     10.96151     10.21457         0.034525      0.178811      0.076159
Ir     12.17686     10.55575      9.58610        -0.036708      0.249921      0.086168
Ir      8.83875     11.01535     12.99170         0.537729      0.023489      0.059490
Ir     10.11879      9.94574     11.08700        -0.132357     -0.040236      0.126786
Ir     13.61842     11.41998     12.59977        -0.110159      0.141541     -0.019208
Ir     11.36012     12.28161     13.09197        -0.156909     -0.032040     -0.038613
Ir      8.48689     11.10946      9.33334         0.046681      0.126034      0.123004
Ir     11.59663      8.01449     10.17194        -0.146064      0.031917      0.153660
Ir      7.22957     13.03449      8.68333        -0.110371      0.333306     -0.068584
Ir      9.54229      6.94611      9.23003         0.035278      0.056023      0.155883
Ir      8.04703      8.77151     10.02229        -0.092926     -0.051686      0.098050
Ir     10.72144     12.14371      8.48642        -0.060183     -0.047347      0.087706
Ir      9.49605      7.61992     11.75213         0.143664      0.040172      0.039979
Ir     13.73577      8.76727      8.92490         0.284465     -0.086584     -0.094812
