152
# total energy = -1023.21389782 eVH     10.35389      5.87395      7.64558         0.497035      0.085701      0.722348
H     10.62451     15.10445      7.64558        -0.103310     -0.058218      0.815937
H     10.62451      5.87395     13.33282         0.145084      0.127566     -0.641416
H     10.35389     15.10445     13.33282        -0.167436     -0.124805     -0.538276
H      7.64558     10.35389      5.87395         0.309490     -0.022441      0.188651
H      7.64558     10.62451     15.10445         0.644402     -0.211302     -0.132575
H     13.33282     10.62451      5.87395        -0.785938     -0.170012      0.204352
H     13.33282     10.35389     15.10445        -0.434342     -0.101055     -0.056833
H      5.87395      7.64558     10.35389         0.210781      1.086975     -0.261087
H     15.10445      7.64558     10.62451        -0.176337      0.474053     -0.122324
H      5.87395     13.33282     10.62451         0.160971     -0.416796     -0.059937
H     15.10445     13.33282     10.35389        -0.131455     -0.915454      0.020261
H      5.87395     10.35389      7.64558         0.131921      0.099056      0.458250
H     15.10445     10.62451      7.64558         0.102100     -0.028028      1.048617
H      5.87395     10.62451     13.33282         0.191117     -0.026252     -0.382143
H     15.10445     10.35389     13.33282        -0.120274     -0.058991     -0.535009
H     10.35389      7.64558      5.87395         0.133131      0.862851      0.185486
H     10.62451      7.64558     15.10445        -0.010904      0.534045     -0.164043
H     10.62451     13.33282      5.87395        -0.010972     -0.580416      0.213621
H     10.35389     13.33282     15.10445        -0.285636     -0.889142     -0.131925
H      7.64558      5.87395     10.35389         0.445528      0.096268     -0.041692
H      7.64558     15.10445     10.62451         0.835350     -0.282191      0.026276
H     13.33282      5.87395     10.62451        -0.450262      0.187766     -0.066172
H     13.33282     15.10445     10.35389        -0.658857     -0.100607      0.166352
H     12.45634     12.45634     19.01126         0.252015      0.263989     -0.230559
H     19.01126     19.01126     19.01126        -0.252434     -0.229853     -0.262037
H     19.01126     12.45634     12.45634        -0.233769      0.272275      0.241712
H     12.45634     19.01126     12.45634         0.224713     -0.263119      0.249885
C     10.35284      5.61067      6.59456        -0.198765     -0.356265     -0.035664
C     10.62556     15.36773      6.59456         0.070287      0.361929     -1.232531
C     10.62556      5.61067     14.38384        -0.058159     -0.259416      0.820533
C     10.35284     15.36773     14.38384         0.037928      0.867968      0.420343
C      6.59456     10.35284      5.61067        -0.360716     -0.036375     -0.171902
C      6.59456     10.62556     15.36773        -0.842711      0.190240      0.370564
C     14.38384     10.62556      5.61067         0.484569      0.307910     -0.499161
C     14.38384     10.35284     15.36773         0.769869     -0.108652      0.444868
C      5.61067      6.59456     10.35284        -0.315057     -0.638556      0.438918
C     15.36773      6.59456     10.62556         0.163259     -0.510420      0.085190
C      5.61067     14.38384     10.62556        -0.144076      0.382866     -0.023552
C     15.36773     14.38384     10.35284         0.391650     -0.035519     -0.092005
C      5.61067     10.35284      6.59456        -0.260396     -0.024355     -0.785507
C     15.36773     10.62556      6.59456         0.610761     -0.267176     -1.341063
C      5.61067     10.62556     14.38384        -0.339064     -0.003426      0.419392
C     15.36773     10.35284     14.38384         0.493257     -0.162685      1.125324
C     10.35284      6.59456      5.61067        -0.173629     -0.465508     -0.436340
C     10.62556      6.59456     15.36773         0.057843     -0.639133      0.274944
C     10.62556     14.38384      5.61067         0.090300      0.983000     -0.496190
C     10.35284     14.38384     15.36773         0.256606      0.600719      0.512062
C      6.59456      5.61067     10.35284        -0.124683     -0.823128      0.073749
C      6.59456     15.36773     10.62556        -1.519946      0.415958      0.114861
C     14.38384      5.61067     10.62556         0.637985     -0.277169     -0.018462
C     14.38384     15.36773     10.35284        -0.426612      0.682954     -0.317389
C     10.40319      3.19606      7.29314         0.005203      0.827660     -0.296299
C     10.35913      4.25547      6.23373        -0.052537     -0.478185      0.495056
C      0.08601      7.29314      7.29314        -0.006497     -0.254473     -0.532763
C      0.13007      6.23373      6.23373         0.033151      0.153945      0.207640
C      0.08601      3.19606      3.19606        -0.010247      0.581329      0.196840
C      0.13007      4.25547      4.25547        -0.093355     -0.177110     -0.192703
C     10.40319      7.29314      3.19606        -0.009105     -0.631496      0.564626
C     10.35913      6.23373      4.25547        -0.044176      0.261013     -0.608253
C      7.29314     10.40319      3.19606        -0.294110      0.026186      0.953687
C      6.23373     10.35913      4.25547         0.166989      0.033185     -0.128962
C      7.29314      0.08601      7.29314        -0.308590     -0.034727     -0.301908
C      6.23373      0.13007      6.23373         0.330590     -0.050107      0.317903
C      3.19606      0.08601      3.19606         0.514175     -0.030122      0.696658
C      4.25547      0.13007      4.25547        -0.093414     -0.027101     -0.369382
C      3.19606     10.40319      7.29314         0.708115      0.000903     -0.416881
C      4.25547     10.35913      6.23373        -0.156854      0.027771      0.082847
C      3.19606      7.29314     10.40319         0.684251     -1.287148     -0.012591
C      4.25547      6.23373     10.35913        -0.659828      0.911878      0.077175
C      7.29314      7.29314      0.08601        -0.706701     -0.181008     -0.018014
C      6.23373      6.23373      0.13007         0.220342      0.199225      0.020303
C      3.19606      3.19606      0.08601         0.270990      0.299743     -0.020907
C      4.25547      4.25547      0.13007        -0.071123     -0.040396     -0.003658
C      7.29314      3.19606     10.40319        -0.359480      1.012937      0.016423
C      6.23373      4.25547     10.35913         1.070828     -0.019803      0.006760
O     10.43466      3.58206      8.50569        -0.042156      0.051089      0.388624
O     10.54374     17.39634      8.50569        -0.044478     -0.175252      0.595856
O     10.54374      3.58206     12.47271         0.048880      0.081187     -0.332296
O     10.43466     17.39634     12.47271        -0.008710     -0.141547     -0.635619
O      8.50569     10.43466      3.58206         0.324713     -0.033337     -0.035983
O      8.50569     10.54374     17.39634         0.472146      0.043350     -0.144712
O     12.47271     10.54374      3.58206        -0.473255      0.010556      0.085771
O     12.47271     10.43466     17.39634        -0.793815      0.000393     -0.188453
O      3.58206      8.50569     10.43466         0.109845      1.043499      0.015984
O     17.39634      8.50569     10.54374        -0.025065      0.303021      0.074223
O      3.58206     12.47271     10.54374         0.073881     -0.466218      0.050085
O     17.39634     12.47271     10.43466        -0.176566     -0.898173      0.058451
O      3.58206     10.43466      8.50569        -0.061091     -0.067974      0.336142
O     17.39634     10.54374      8.50569        -0.130251      0.040880      0.462443
O      3.58206     10.54374     12.47271         0.097445     -0.023426     -0.643816
O     17.39634     10.43466     12.47271        -0.191466      0.057377     -0.801723
O     10.43466      8.50569      3.58206         0.026705      0.634784      0.157297
O     10.54374      8.50569     17.39634         0.061938      0.433448     -0.078683
O     10.54374     12.47271      3.58206        -0.003851     -0.685513      0.219055
O     10.43466     12.47271     17.39634         0.032807     -0.842369     -0.238817
O      8.50569      3.58206     10.43466         0.436181      0.020382     -0.041120
O      8.50569     17.39634     10.54374         0.706262     -0.263621     -0.067557
O     12.47271      3.58206     10.54374        -0.461495      0.152526      0.042011
O     12.47271     17.39634     10.43466        -0.563489     -0.023632     -0.005410
O     11.90042     11.90042     19.56718        -0.294047     -0.313555      0.256234
O     19.56718     19.56718     19.56718         0.283114      0.259251      0.310291
O     19.56718     11.90042     11.90042         0.257770     -0.322452     -0.248513
O     11.90042     19.56718     11.90042        -0.272582      0.275968     -0.268465
O      9.45224      1.03696      9.45224        -0.083234      0.040499     -0.072145
O      1.03696      9.45224      9.45224         0.010762     -0.173921     -0.099391
O      1.03696      1.03696      1.03696         0.002726      0.069554      0.175616
O      9.45224      9.45224      1.03696        -0.063236     -0.106251      0.102041
Zr     10.48920      2.52580     10.48920         0.004534     -0.095977     -0.043552
Zr     10.48920     18.45260     10.48920         0.142249      0.373862      0.012410
Zr     10.48920     10.48920      2.52580         0.011491     -0.010071     -0.358532
Zr     10.48920     10.48920     18.45260        -0.150894     -0.046016      0.371431
Zr      2.52580     10.48920     10.48920        -0.334356      0.243955     -0.117380
Zr     18.45260     10.48920     10.48920         0.281249     -0.011675     -0.280607
Pd      8.97715     10.11447     13.30886        -0.034437     -0.029670      0.023483
Pd     10.67464      9.70121     10.86114        -0.004378     -0.028469     -0.061945
Pd     13.71623      8.36502     12.57851        -0.012121      0.025081      0.019993
Pd     10.99683     10.90728     14.95466        -0.029551     -0.018120     -0.000188
Pd     12.90893     10.99717     12.94935         0.002882      0.023162      0.045878
Pd     15.11256     11.09592     11.31271        -0.009168     -0.023330      0.003111
Pd      6.58280      7.72208     12.32836        -0.002380      0.021922      0.013057
Pd      9.31291      7.28004      9.86959        -0.003357      0.003627     -0.018679
Pd      9.21069      7.46161     12.63541         0.002156     -0.010639     -0.018045
Pd     11.61762      7.13828     11.43086        -0.001213      0.012542     -0.021818
Pd     11.70465      7.98680      8.92479         0.011850     -0.025489     -0.040936
Pd      7.39030     11.77193     11.76635        -0.020343     -0.007228     -0.010046
Pd      9.21870     14.79598      9.44776         0.004534     -0.017529      0.016327
Pd      8.41749     12.55045     14.23878        -0.019472     -0.010891      0.008665
Pd     14.09303     14.24741      8.31595         0.004918     -0.009488      0.002182
Pd     11.49828     13.64989      8.72282         0.023030     -0.015009      0.015378
Pd     14.16765     11.68843      8.89610        -0.011432     -0.009036      0.007028
Pd      8.73298     14.02782     12.05182        -0.008248      0.002326      0.007186
Pd     12.27215     13.47616     14.13138        -0.019180      0.013307     -0.010607
Pd     11.35226     14.42991     11.44278         0.012915     -0.019583      0.003579
Pd     14.09029     13.59290     12.27560        -0.007084     -0.016579     -0.008735
Pd     12.43222     12.17584     10.72584         0.001076     -0.061195      0.004302
Pd     12.75299     12.50322      6.68934         0.004138      0.005950      0.002712
Pd     13.93591      9.00205      8.01611        -0.001961     -0.007504     -0.008214
Pd      6.93394      8.49264      8.75307         0.001631     -0.010759     -0.013376
Pd      5.62406     10.11105     10.69995        -0.001759     -0.007799     -0.040110
Pd      9.40071      9.44615      8.12837        -0.005889     -0.010537     -0.054058
Pd      8.56390      7.01249      7.24097        -0.013426     -0.023477     -0.015974
Pd      9.76921     12.13965     10.32086        -0.037720     -0.018172     -0.028027
Pd     11.64334     10.80303      8.51662         0.011453     -0.010198     -0.027898
Pd     11.58576      9.10063      6.48689         0.014242     -0.004977     -0.025841
Pd     10.07607     11.36167      6.39191         0.000201      0.005871     -0.029571
Ir     11.28338      8.98812     13.22165        -0.045245      0.049438     -0.052545
Ir     13.21556      9.62050     10.40683        -0.004668     -0.033905     -0.048397
Ir     10.55871     12.20744     12.70779        -0.006566     -0.036387      0.047746
Ir      7.61006     10.99582      9.24016         0.036963      0.015213     -0.028247
Ir      8.77582     12.66896      8.07737         0.060416     -0.058974      0.037609
Ir      8.18396      9.29680     11.00081        -0.004292     -0.009822     -0.006470
