9
# total energy = -73.90512137 eVC      2.68348      0.74646      7.50000        -0.000000      0.105159     -0.000000
C      2.68348      4.62050      7.50000         0.000000     -0.105159      0.000000
C      4.62050      2.68348      7.50000        -0.105159     -0.000000     -0.000000
C      0.74646      2.68348      7.50000         0.105159      0.000000      0.000000
C      3.98120      3.98120      7.50000         0.059685      0.059685      0.000000
C      1.38576      1.38576      7.50000        -0.059685     -0.059685     -0.000000
C      1.38576      3.98120      7.50000        -0.059685      0.059685     -0.000000
C      3.98120      1.38576      7.50000         0.059685     -0.059685      0.000000
Ir      0.00000      0.00000      7.50000         0.000000      0.000000      0.000000
