152
# total energy = -1002.66069368 eVH     10.35389      5.87395      7.64558         0.063083      0.097713      1.181236
H     10.62451     15.10445      7.64558        -0.004853     -0.063771      1.054046
H     10.62451      5.87395     13.33282         0.156032      0.031482     -1.191705
H     10.35389     15.10445     13.33282        -0.227954     -0.148702     -1.014189
H      7.64558     10.35389      5.87395         0.924240      0.378009     -0.256306
H      7.64558     10.62451     15.10445         0.705140      0.241781      0.070033
H     13.33282     10.62451      5.87395        -0.801022      0.297055     -0.007178
H     13.33282     10.35389     15.10445        -0.658426     -0.108837      0.042496
H      5.87395      7.64558     10.35389        -0.354099      2.119554      0.342656
H     15.10445      7.64558     10.62451         0.093016      1.566983      0.123954
H      5.87395     13.33282     10.62451        -0.072133     -1.076197     -0.306917
H     15.10445     13.33282     10.35389         0.070218     -1.160812     -0.307233
H      5.87395     10.35389      7.64558        -0.973757      0.348572      1.390499
H     15.10445     10.62451      7.64558         0.322020      0.598178      1.484755
H      5.87395     10.62451     13.33282        -0.889679      0.550203     -1.373349
H     15.10445     10.35389     13.33282         0.891014     -0.060693     -1.144853
H     10.35389      7.64558      5.87395         0.417570      1.175517     -0.097152
H     10.62451      7.64558     15.10445         0.267386      0.661280     -0.087127
H     10.62451     13.33282      5.87395        -0.495563     -1.103785     -0.049563
H     10.35389     13.33282     15.10445        -0.134698     -0.498705     -0.144493
H      7.64558      5.87395     10.35389         0.726892     -0.132687      0.015193
H      7.64558     15.10445     10.62451         0.554213     -0.152959     -0.095020
H     13.33282      5.87395     10.62451        -0.945616      0.036095      0.203756
H     13.33282     15.10445     10.35389        -0.441783     -0.092254     -0.066105
H     12.45634     12.45634     19.01126         0.257744      0.236021     -0.247558
H     19.01126     19.01126     19.01126        -0.254403     -0.250694     -0.238757
H     19.01126     12.45634     12.45634        -0.256866      0.267043      0.231706
H     12.45634     19.01126     12.45634         0.264444     -0.267092      0.224451
C     10.35284      5.61067      6.59456        -0.111501     -0.950862     -1.008106
C     10.62556     15.36773      6.59456        -0.109758      0.539816     -0.859854
C     10.62556      5.61067     14.38384        -0.225428     -0.515221      1.539071
C     10.35284     15.36773     14.38384         0.182412      0.290136      1.019919
C      6.59456     10.35284      5.61067        -1.831214      0.158313     -1.147774
C      6.59456     10.62556     15.36773        -1.044374      0.199860      0.831389
C     14.38384     10.62556      5.61067         1.661031      0.149530     -0.919804
C     14.38384     10.35284     15.36773         1.098211     -0.004962      0.684311
C      5.61067      6.59456     10.35284        -0.586830     -1.546844     -0.023290
C     15.36773      6.59456     10.62556         0.576831     -0.708576      0.127826
C      5.61067     14.38384     10.62556        -0.285198      1.143538      0.114073
C     15.36773     14.38384     10.35284         0.260281      1.301994      0.075028
C      5.61067     10.35284      6.59456        -0.452457      0.000486     -1.775322
C     15.36773     10.62556      6.59456         0.483679      0.079441     -1.291737
C      5.61067     10.62556     14.38384        -0.166301     -0.068746      1.681273
C     15.36773     10.35284     14.38384         0.102921     -0.015384      1.612743
C     10.35284      6.59456      5.61067        -0.016995     -1.124951     -0.713523
C     10.62556      6.59456     15.36773         0.101591     -0.616688      0.615728
C     10.62556     14.38384      5.61067         0.150500      0.954899     -0.542395
C     10.35284     14.38384     15.36773        -0.045827      0.468730      0.470246
C      6.59456      5.61067     10.35284        -0.467971     -1.161749      0.002724
C      6.59456     15.36773     10.62556        -0.720191      0.691566     -0.027107
C     14.38384      5.61067     10.62556         0.578935     -0.837870     -0.120989
C     14.38384     15.36773     10.35284         0.447162      0.537402     -0.035441
C     10.40319      3.19606      7.29314        -0.022822      0.313172     -0.753310
C     10.35913      4.25547      6.23373        -0.050899     -0.558239      0.149932
C      0.08601      7.29314      7.29314        -0.008053     -0.442387     -0.318670
C      0.13007      6.23373      6.23373        -0.020830      0.396142      0.291083
C      0.08601      3.19606      3.19606         0.013751      0.443091      0.518431
C      0.13007      4.25547      4.25547         0.006483     -0.456392     -0.460726
C     10.40319      7.29314      3.19606        -0.051876     -0.819841      0.276774
C     10.35913      6.23373      4.25547         0.007762      0.302493     -0.641050
C      7.29314     10.40319      3.19606        -0.739141     -0.017004      0.115740
C      6.23373     10.35913      4.25547         0.354063     -0.034715     -0.383821
C      7.29314      0.08601      7.29314        -0.472375     -0.059433     -0.270653
C      6.23373      0.13007      6.23373         0.489609     -0.155362      0.307643
C      3.19606      0.08601      3.19606         0.811444     -0.032763      0.210099
C      4.25547      0.13007      4.25547        -0.463873     -0.227216     -0.529179
C      3.19606     10.40319      7.29314         0.318933      0.000638     -0.195345
C      4.25547     10.35913      6.23373        -0.280233     -0.026969      0.382063
C      3.19606      7.29314     10.40319         0.271176     -0.417737      0.003464
C      4.25547      6.23373     10.35913        -0.818776      0.160478      0.074597
C      7.29314      7.29314      0.08601        -0.412125     -0.369048     -0.007657
C      6.23373      6.23373      0.13007         0.777170      0.078519     -0.012287
C      3.19606      3.19606      0.08601         0.738358      0.326163     -0.006080
C      4.25547      4.25547      0.13007        -0.337960     -0.668279     -0.061104
C      7.29314      3.19606     10.40319        -0.329400      0.401363      0.013631
C      6.23373      4.25547     10.35913         0.417221     -0.426779      0.067666
O     10.43466      3.58206      8.50569         0.079087      0.236198      0.676323
O     10.54374     17.39634      8.50569         0.018580     -0.158390      0.427569
O     10.54374      3.58206     12.47271         0.094958      0.169340     -0.533282
O     10.43466     17.39634     12.47271        -0.027885     -0.081453     -0.353442
O      8.50569     10.43466      3.58206         0.685552     -0.106065      0.231433
O      8.50569     10.54374     17.39634         0.597394     -0.012219     -0.236505
O     12.47271     10.54374      3.58206        -0.768076      0.070530      0.282542
O     12.47271     10.43466     17.39634        -0.484869      0.008882     -0.217885
O      3.58206      8.50569     10.43466         0.174049      0.572139     -0.020202
O     17.39634      8.50569     10.54374        -0.153013      0.507998      0.038691
O      3.58206     12.47271     10.54374         0.083445     -0.407098      0.031970
O     17.39634     12.47271     10.43466        -0.175719     -0.521502     -0.027629
O      3.58206     10.43466      8.50569         0.168834     -0.022458      0.351892
O     17.39634     10.54374      8.50569        -0.133448      0.065311      0.377835
O      3.58206     10.54374     12.47271         0.042558      0.050372     -0.239505
O     17.39634     10.43466     12.47271        -0.058173     -0.014980     -0.201719
O     10.43466      8.50569      3.58206        -0.090467      0.719622      0.172462
O     10.54374      8.50569     17.39634        -0.007661      0.573767     -0.191009
O     10.54374     12.47271      3.58206         0.033391     -0.509374      0.093887
O     10.43466     12.47271     17.39634        -0.021123     -0.406961     -0.074687
O      8.50569      3.58206     10.43466         0.560361      0.139754     -0.037008
O      8.50569     17.39634     10.54374         0.585566     -0.182682      0.041247
O     12.47271      3.58206     10.54374        -0.740569      0.185599      0.023676
O     12.47271     17.39634     10.43466        -0.512998     -0.142965     -0.025168
O     11.90042     11.90042     19.56718        -0.299643     -0.254591      0.283299
O     19.56718     19.56718     19.56718         0.301047      0.309921      0.280081
O     19.56718     11.90042     11.90042         0.312838     -0.306143     -0.231059
O     11.90042     19.56718     11.90042        -0.313138      0.329388     -0.212452
O      9.45224      1.03696      9.45224        -0.023646      0.095905     -0.063122
O      1.03696      9.45224      9.45224         0.051513     -0.019921     -0.071831
O      1.03696      1.03696      1.03696         0.037888      0.084981      0.112034
O      9.45224      9.45224      1.03696        -0.048248     -0.024220      0.140254
Zr     10.48920      2.52580     10.48920        -0.174102     -0.286104      0.038101
Zr     10.48920     18.45260     10.48920         0.074315      0.088993     -0.071292
Zr     10.48920     10.48920      2.52580         0.006768      0.067399     -0.397474
Zr     10.48920     10.48920     18.45260         0.005401     -0.054356      0.226760
Zr      2.52580     10.48920     10.48920        -0.093066     -0.111005     -0.060537
Zr     18.45260     10.48920     10.48920         0.098339     -0.010977     -0.079366
Pd     11.83026      8.58330     10.30643        -0.066971     -0.079349     -0.041750
Pd      7.12953     10.13051     10.37835        -0.020189     -0.054585      0.053803
Pd      7.21803     12.56175     11.74837         0.037995     -0.115063     -0.023587
Pd     11.98759     13.30762      7.31123        -0.011620      0.004397      0.151640
Pd     11.42295      8.27945      7.48937        -0.018993      0.024181      0.091338
Pd      8.77730      7.19803      7.29599         0.101741      0.052283     -0.052438
Pd     11.54127     10.93207      6.10492         0.091620      0.043930     -0.003161
Pd     13.61225      9.50867      7.62339         0.135677     -0.101067      0.058017
Pd      9.40028     11.84828      7.38048         0.068545     -0.067212      0.116805
Pd      7.09886      7.77252     11.78575        -0.086492     -0.128431     -0.028185
Pd      6.84074      7.70963      8.81981         0.001153     -0.038583      0.127371
Pd      7.46868     10.06093     12.96080         0.201533     -0.174987      0.056222
Pd     11.51617      6.11575      9.09847        -0.135781     -0.083250      0.045190
Pd      9.40770      9.49386      5.95034         0.004221      0.054677      0.050547
Pd      9.28912     14.09727      8.75612         0.033578      0.100472      0.073973
Pd     11.51776      6.35641     11.74868        -0.070174     -0.088699     -0.027263
Pd      9.63040      9.32186      9.02227        -0.087197      0.012688     -0.209243
Pd      9.29604     11.77599     10.15874         0.028645      0.031285     -0.147057
Pd      9.31654      7.06683     10.27117         0.102218      0.009148      0.042635
Pd      9.17871      7.23688     13.18611         0.055222     -0.029777      0.108080
Pd      9.50204      9.41360     11.60864        -0.025933     -0.028756      0.116953
Pd     11.63314     10.95816      8.77870         0.073088      0.014580      0.049763
Pd      7.08499     12.47582      8.85187         0.047165      0.108446      0.132204
Pd      7.56390      9.97646      7.86959         0.204415     -0.144300     -0.036547
Pd     13.89428      7.33251      8.98722        -0.082910     -0.044293     -0.142280
Pd     13.83531      7.84273     12.11532        -0.067602      0.072231     -0.078527
Pd      9.42956     11.90468     12.97294         0.013455     -0.085520      0.090702
Pd     13.93549     12.30857      8.76488         0.104330      0.055993      0.004097
Pd     13.43908     10.42671     12.81048         0.118136      0.062207     -0.098511
Pd     13.93867     10.07609     10.25439         0.168498      0.007114     -0.052880
Pd     11.48332     11.15546     11.41275         0.175501     -0.032801      0.174924
Pd     11.59577     13.45332      9.98379        -0.049407      0.004573     -0.016324
Pd     13.69542     12.67571     11.47247         0.138690     -0.093197     -0.063286
Pd     11.67843     13.55493     12.87273         0.013218     -0.084859     -0.032825
Pd     11.53617     11.33328     14.39733         0.075701     -0.017391      0.029442
Pd     11.53328      8.70943     13.09512        -0.032350      0.015819      0.141714
Pd      9.52016      9.58015     14.59687        -0.057156      0.052424      0.035560
Pd      9.44062     14.16724     11.42932        -0.046884     -0.039015      0.000496
