35
# total energy = -301.57534637 eVC      6.68378     10.29325      7.65031        -0.031944     -0.095125      0.003784
C      8.06788      9.93531      7.57884         0.023971      0.064584      0.007829
C      9.42241      5.70335      7.64997        -0.035235      0.093047     -0.001872
C      1.45981      5.35480      7.66832         0.027523     -0.096677      0.000850
C      4.19745      0.76375      7.63244         0.044660      0.100250      0.008694
C      2.81344      1.12176      7.56336        -0.028686     -0.062122      0.009034
C      0.70790      4.16807      7.64403         0.092411      0.043309      0.004118
C      1.10035      2.79383      7.56976        -0.061684     -0.031898      0.010485
C      5.36466      1.54568      7.64681        -0.089878      0.036535     -0.002941
C      5.51626      9.51165      7.67017         0.093335     -0.034819      0.003630
C     10.17478      6.88989      7.64158        -0.107990     -0.040091      0.005688
C      9.78239      8.26474      7.57265         0.072319      0.015585      0.010129
C      0.77117      6.58014      7.64891         0.107904      0.037682     -0.005066
C      1.25515      7.92789      7.58023        -0.007122      0.025793      0.003492
C     10.11110      4.47801      7.64271        -0.105686     -0.039611     -0.001049
C      9.62740      3.13039      7.56946         0.013739     -0.024718      0.002206
C      4.27401     10.16938      7.65029        -0.037708     -0.102606     -0.000837
C      2.93837      9.65261      7.58087        -0.028063      0.009948      0.004468
C      6.60724      0.88806      7.63764         0.034857      0.100125      0.000482
C      7.94286      1.40476      7.56779         0.030626     -0.009610      0.001793
N      8.80847      0.31049      7.48094         0.006611      0.029024     -0.000778
N      0.14046      8.76617      7.48682         0.025622      0.006387      0.006769
N      8.53153      8.69581      7.59758        -0.026756     -0.017587      0.001699
N      2.35110      2.36151      7.58974         0.018173      0.023633      0.003173
N      2.07258     10.74634      7.48979        -0.005763     -0.026361      0.001949
N     10.74317      2.29260      7.48287        -0.027014     -0.010928      0.003194
N      2.56747      8.33100      7.60054         0.004896     -0.010305     -0.003519
N      8.31486      2.72658      7.58492        -0.008862      0.006292     -0.006163
O      5.33636      2.87438      7.62834        -0.021064      0.017831     -0.008850
O      5.54469      8.18280      7.67592         0.027006     -0.016433      0.003177
O      8.09368      5.69758      7.62341        -0.023320      0.031208     -0.001626
O      2.78854      5.35956      7.67649         0.032865     -0.025522      0.004117
Zr      6.53947      4.45766      7.59966         0.014141     -0.014774     -0.019568
Zr      4.34481      6.59726      7.67669        -0.021868      0.020247      0.016790
Zr      0.02558     10.81069      6.86267        -0.002020     -0.002293     -0.065281
