152
# total energy = -1060.07004069 eVH     10.35389      5.87395      7.64558        -0.273187      0.028876      1.131548
H     10.62451     15.10445      7.64558         0.076503     -0.089130      0.922808
H     10.62451      5.87395     13.33282        -0.253578      0.081162     -0.787890
H     10.35389     15.10445     13.33282         0.101639     -0.300143     -0.879024
H      7.64558     10.35389      5.87395         0.932049     -0.132387      0.186638
H      7.64558     10.62451     15.10445         0.328331     -0.036840     -0.074643
H     13.33282     10.62451      5.87395        -0.863976      0.202339      0.204257
H     13.33282     10.35389     15.10445        -0.278284     -0.013221     -0.067685
H      5.87395      7.64558     10.35389         0.087743      0.416725     -0.009283
H     15.10445      7.64558     10.62451        -0.001250      0.498075     -0.029372
H      5.87395     13.33282     10.62451        -0.015880     -0.961852      0.078397
H     15.10445     13.33282     10.35389        -0.086580     -0.321078      0.004457
H      5.87395     10.35389      7.64558         0.280228      0.113105      0.408788
H     15.10445     10.62451      7.64558        -0.123694     -0.171599      0.661233
H      5.87395     10.62451     13.33282        -0.086868      0.462435     -0.621436
H     15.10445     10.35389     13.33282         0.249022     -0.624738     -0.830277
H     10.35389      7.64558      5.87395        -0.040918      0.483896      0.333967
H     10.62451      7.64558     15.10445         0.244226      0.764389     -0.035308
H     10.62451     13.33282      5.87395         0.124951     -0.572644      0.209096
H     10.35389     13.33282     15.10445         0.041274     -0.286937     -0.140369
H      7.64558      5.87395     10.35389         0.344515      0.098334      0.027525
H      7.64558     15.10445     10.62451         0.378329     -0.117464      0.164768
H     13.33282      5.87395     10.62451        -0.316521      0.129891     -0.032103
H     13.33282     15.10445     10.35389        -0.652882     -0.131548      0.148816
H     12.45634     12.45634     19.01126         0.255677      0.271204     -0.228620
H     19.01126     19.01126     19.01126        -0.246557     -0.267902     -0.245397
H     19.01126     12.45634     12.45634        -0.250958      0.269645      0.235326
H     12.45634     19.01126     12.45634         0.290601     -0.235608      0.234579
C     10.35284      5.61067      6.59456         0.398322     -0.418121     -1.436915
C     10.62556     15.36773      6.59456        -0.158904      0.585177     -0.642096
C     10.62556      5.61067     14.38384         0.383635     -0.338976      0.837531
C     10.35284     15.36773     14.38384        -0.227416      0.230375      1.092248
C      6.59456     10.35284      5.61067        -1.375650      0.021585     -0.233474
C      6.59456     10.62556     15.36773        -0.643110      0.062516      0.369847
C     14.38384     10.62556      5.61067         1.311828     -0.170592     -0.630320
C     14.38384     10.35284     15.36773         0.361624     -0.125111      0.360264
C      5.61067      6.59456     10.35284        -0.288391     -0.643146     -0.019557
C     15.36773      6.59456     10.62556         0.421229     -0.968424      0.031752
C      5.61067     14.38384     10.62556        -0.133912      1.165226     -0.179776
C     15.36773     14.38384     10.35284         0.462766      0.652300     -0.026913
C      5.61067     10.35284      6.59456        -0.368030     -0.100120     -0.720824
C     15.36773     10.62556      6.59456         0.408228      0.118678     -0.728576
C      5.61067     10.62556     14.38384        -0.379872     -0.171962      1.230949
C     15.36773     10.35284     14.38384         0.268190      0.191115      1.467911
C     10.35284      6.59456      5.61067        -0.053635     -0.718548     -0.603346
C     10.62556      6.59456     15.36773        -0.101534     -0.870289      0.346053
C     10.62556     14.38384      5.61067        -0.470267      0.411892     -0.707185
C     10.35284     14.38384     15.36773        -0.155900      0.599332      0.420345
C      6.59456      5.61067     10.35284        -0.510704     -0.335139      0.028446
C      6.59456     15.36773     10.62556        -0.379400      0.451710      0.056430
C     14.38384      5.61067     10.62556         0.448942     -0.375625      0.001828
C     14.38384     15.36773     10.35284         1.118962      0.495632     -0.073545
C     10.40319      3.19606      7.29314        -0.000672      0.678577     -0.339583
C     10.35913      4.25547      6.23373         0.009628     -0.429593      0.290177
C      0.08601      7.29314      7.29314        -0.013266     -0.366876     -0.503039
C      0.13007      6.23373      6.23373        -0.071232      0.843775      0.064527
C      0.08601      3.19606      3.19606        -0.002525      0.680219      0.266999
C      0.13007      4.25547      4.25547         0.030354     -0.270721     -0.539386
C     10.40319      7.29314      3.19606        -0.066635     -1.151631      0.578004
C     10.35913      6.23373      4.25547        -0.039219      0.366740     -0.199199
C      7.29314     10.40319      3.19606        -1.083087     -0.056927      0.193066
C      6.23373     10.35913      4.25547         0.366077      0.085523     -0.541352
C      7.29314      0.08601      7.29314        -0.431764      0.032892     -0.525723
C      6.23373      0.13007      6.23373         0.181221      0.128099      0.126797
C      3.19606      0.08601      3.19606         0.696928      0.024195      0.164482
C      4.25547      0.13007      4.25547        -0.172664     -0.052778     -0.359737
C      3.19606     10.40319      7.29314         0.391323     -0.025944     -0.886353
C      4.25547     10.35913      6.23373        -0.155481     -0.078173      0.099112
C      3.19606      7.29314     10.40319         0.605332     -0.394038      0.002527
C      4.25547      6.23373     10.35913        -0.113826      0.182487      0.000430
C      7.29314      7.29314      0.08601        -0.409063     -0.316898     -0.014683
C      6.23373      6.23373      0.13007         0.184525      0.188703     -0.064673
C      3.19606      3.19606      0.08601         0.289363      0.479270     -0.023668
C      4.25547      4.25547      0.13007        -0.403228     -0.230538     -0.032592
C      7.29314      3.19606     10.40319        -0.279216      0.592600     -0.011325
C      6.23373      4.25547     10.35913         0.004680     -0.115226      0.020974
O     10.43466      3.58206      8.50569        -0.028682      0.094372      0.321250
O     10.54374     17.39634      8.50569         0.062876     -0.129712      0.591294
O     10.54374      3.58206     12.47271         0.027534      0.106483     -0.391642
O     10.43466     17.39634     12.47271         0.089913     -0.047092     -0.384157
O      8.50569     10.43466      3.58206         0.710266     -0.061811      0.012601
O      8.50569     10.54374     17.39634         0.479982      0.057940     -0.078345
O     12.47271     10.54374      3.58206        -0.650975      0.116378      0.205021
O     12.47271     10.43466     17.39634        -0.285764     -0.004539      0.020317
O      3.58206      8.50569     10.43466         0.041025      0.460860     -0.068289
O     17.39634      8.50569     10.54374        -0.060278      0.454209      0.056614
O      3.58206     12.47271     10.54374         0.114492     -0.582910      0.002052
O     17.39634     12.47271     10.43466        -0.172757     -0.742585     -0.056966
O      3.58206     10.43466      8.50569         0.212128     -0.061872      0.782710
O     17.39634     10.54374      8.50569        -0.100109      0.075723      0.559750
O      3.58206     10.54374     12.47271        -0.001562     -0.001751     -0.267919
O     17.39634     10.43466     12.47271         0.038294     -0.012479     -0.224623
O     10.43466      8.50569      3.58206        -0.104736      0.569622     -0.114776
O     10.54374      8.50569     17.39634         0.068160      0.505160     -0.090292
O     10.54374     12.47271      3.58206         0.104915     -0.625245      0.133501
O     10.43466     12.47271     17.39634        -0.059435     -0.651709     -0.253617
O      8.50569      3.58206     10.43466         0.395460      0.026800     -0.035473
O      8.50569     17.39634     10.54374         0.629071     -0.154255      0.048326
O     12.47271      3.58206     10.54374        -0.507692      0.126825      0.035919
O     12.47271     17.39634     10.43466        -0.622229     -0.133666      0.039324
O     11.90042     11.90042     19.56718        -0.273773     -0.307001      0.234270
O     19.56718     19.56718     19.56718         0.303275      0.318240      0.299975
O     19.56718     11.90042     11.90042         0.284885     -0.324431     -0.231550
O     11.90042     19.56718     11.90042        -0.316771      0.229652     -0.202264
O      9.45224      1.03696      9.45224        -0.085485      0.086951     -0.065610
O      1.03696      9.45224      9.45224         0.103645     -0.118229     -0.045411
O      1.03696      1.03696      1.03696         0.083187      0.056227      0.098235
O      9.45224      9.45224      1.03696        -0.060775     -0.131414      0.131659
Zr     10.48920      2.52580     10.48920         0.031603     -0.090690      0.076745
Zr     10.48920     18.45260     10.48920        -0.170711      0.260790     -0.346803
Zr     10.48920     10.48920      2.52580         0.120673      0.354182     -0.349642
Zr     10.48920     10.48920     18.45260        -0.083149     -0.203511      0.182851
Zr      2.52580     10.48920     10.48920        -0.255363      0.125852      0.227912
Zr     18.45260     10.48920     10.48920         0.227334     -0.115100     -0.004141
Pd      9.39270     14.25726      9.36111         0.005982      0.042153     -0.046009
Pd      8.62347     13.70370     12.98885        -0.011566     -0.019357      0.014760
Pd     12.03146     14.41343      8.74776         0.016357     -0.011594     -0.001357
Pd     12.76657     12.81266     10.63103        -0.033352      0.026322      0.032148
Pd     12.15360      7.10904     12.61311        -0.010636      0.008265      0.002365
Pd     11.21429     14.83192     11.50721        -0.024208      0.031638     -0.031803
Pd     10.08266     12.49366     11.11697        -0.052384      0.053847     -0.043171
Pd     13.48196     12.13692      7.98068         0.006158      0.006917      0.007493
Pd     11.48038     11.55697      6.11190         0.004447      0.005522      0.001402
Pd      7.85474      8.55773      7.54640         0.009527     -0.039731     -0.012363
Pd      8.73831     11.73049      6.88736        -0.007575      0.006975     -0.016458
Pd     10.30990      9.46105      8.14140        -0.000888      0.006572      0.010429
Pd      8.50635     14.43401      6.84710        -0.008010      0.012462     -0.032333
Pd     12.37048      9.03510      6.58514        -0.005264      0.008700      0.013216
Pd      9.74384      9.60898      5.55321         0.001968      0.008143      0.001762
Pd      6.87611      9.46247     12.19034        -0.001714      0.010391     -0.005702
Pd     12.21020      6.68775      7.86842        -0.000084      0.016721      0.021603
Pd      5.95367     10.46764      9.73205        -0.010461     -0.016707     -0.004069
Pd      7.57520      7.12908     13.24855         0.008278      0.030504      0.053170
Ir     11.80291      9.69520     13.06067        -0.027239     -0.008227      0.004667
Ir     13.57999      8.99353     11.44317        -0.017717      0.006045      0.013336
Ir      9.42285      8.82691     13.87366        -0.016710     -0.023572      0.089474
Ir     10.56278     10.90551     14.88378        -0.005210     -0.021798      0.078196
Ir      7.29505     12.03297     11.36972         0.006378     -0.031329      0.013641
Ir     14.69132     10.83863     10.09770        -0.001942      0.038184      0.035792
Ir     12.20211     10.48010      9.65401        -0.019952      0.005339     -0.014433
Ir      8.79078     11.04543     13.02299        -0.040175      0.035672     -0.070302
Ir     10.14757      9.85384     11.22156        -0.007144      0.047647     -0.057419
Ir     13.76392     11.36247     12.41517        -0.041077      0.010381      0.060739
Ir     11.64446     12.28564     13.11556        -0.071420     -0.002642     -0.008726
Ir      8.53457     11.07021      9.38592        -0.022850      0.007531     -0.023774
Ir     11.59935      7.97096     10.06669         0.015079      0.021952      0.007360
Ir      7.23948     12.99452      8.69896         0.012184      0.023807      0.010057
Ir      9.51665      7.00108      9.10317         0.013502     -0.012226      0.032774
Ir      8.07284      8.74315     10.10457        -0.017695      0.027885     -0.010183
Ir     10.76117     12.09052      8.53904        -0.003668      0.005323     -0.026565
Ir      9.57600      7.43874     11.65776        -0.025111      0.031933      0.051808
Ir     13.70286      8.69464      8.80337        -0.002795      0.023878      0.022018
