152
# total energy = -1005.09561040 eVH     10.35389      5.87395      7.64558         0.170904      0.082347      0.594182
H     10.62451     15.10445      7.64558        -0.103879     -0.154637      0.464301
H     10.62451      5.87395     13.33282         0.476801      0.072150     -0.822611
H     10.35389     15.10445     13.33282         0.021728     -0.155319     -0.414470
H      7.64558     10.35389      5.87395         0.336794      0.031495      0.161767
H      7.64558     10.62451     15.10445         0.969413      0.537203      0.051642
H     13.33282     10.62451      5.87395        -0.516690      0.348267      0.029780
H     13.33282     10.35389     15.10445        -0.901851     -0.136507      0.049106
H      5.87395      7.64558     10.35389         0.299277      1.282728      0.047050
H     15.10445      7.64558     10.62451        -0.099297      0.511022      0.347323
H      5.87395     13.33282     10.62451         0.168365     -0.554788      0.049294
H     15.10445     13.33282     10.35389        -0.064708     -0.956146     -0.230702
H      5.87395     10.35389      7.64558         0.222951      0.047556      0.442860
H     15.10445     10.62451      7.64558        -0.134218      0.580852      0.777644
H      5.87395     10.62451     13.33282        -0.057464      0.522894     -1.236097
H     15.10445     10.35389     13.33282        -0.073742     -0.062698     -0.640148
H     10.35389      7.64558      5.87395         0.335254      1.197014      0.007983
H     10.62451      7.64558     15.10445         0.598186      0.702421     -0.209337
H     10.62451     13.33282      5.87395        -0.376473     -0.797129      0.302457
H     10.35389     13.33282     15.10445        -0.135333     -0.463933     -0.307467
H      7.64558      5.87395     10.35389         0.708920      0.062553     -0.216406
H      7.64558     15.10445     10.62451         0.798756     -0.178140      0.025620
H     13.33282      5.87395     10.62451        -0.698245      0.155070      0.566594
H     13.33282     15.10445     10.35389        -0.423006     -0.106957     -0.128544
H     12.45634     12.45634     19.01126         0.251504      0.274868     -0.228964
H     19.01126     19.01126     19.01126        -0.282926     -0.258103     -0.226406
H     19.01126     12.45634     12.45634        -0.280720      0.262124      0.215557
H     12.45634     19.01126     12.45634         0.241097     -0.261506      0.268097
C     10.35284      5.61067      6.59456        -0.262055     -0.820243     -0.118768
C     10.62556     15.36773      6.59456         0.040165      0.265997     -0.260489
C     10.62556      5.61067     14.38384        -0.128042     -0.453074      0.423559
C     10.35284     15.36773     14.38384         0.022620      0.201859      0.361568
C      6.59456     10.35284      5.61067        -0.353981      0.011406     -0.190470
C      6.59456     10.62556     15.36773        -0.896219      0.146223      0.699933
C     14.38384     10.62556      5.61067         0.012239     -0.423756     -0.761951
C     14.38384     10.35284     15.36773         1.113127     -0.083591      0.142189
C      5.61067      6.59456     10.35284        -0.739462     -0.255850     -0.195765
C     15.36773      6.59456     10.62556         0.539687      0.069073     -0.376631
C      5.61067     14.38384     10.62556        -0.175584      0.525091      0.011611
C     15.36773     14.38384     10.35284         0.254415      0.909446      0.031395
C      5.61067     10.35284      6.59456        -0.309776      0.022527     -0.829430
C     15.36773     10.62556      6.59456         0.548030     -0.175826      0.214043
C      5.61067     10.62556     14.38384        -0.766894      0.010338      0.899812
C     15.36773     10.35284     14.38384         0.487787     -0.071302      1.041627
C     10.35284      6.59456      5.61067        -0.085437     -0.902344     -0.626883
C     10.62556      6.59456     15.36773         0.005672     -0.567303      0.488097
C     10.62556     14.38384      5.61067         0.181744      1.203033     -0.298381
C     10.35284     14.38384     15.36773        -0.008043      0.937357      0.429303
C      6.59456      5.61067     10.35284         0.379830     -1.056625      0.351225
C      6.59456     15.36773     10.62556        -0.943565      0.215116      0.090517
C     14.38384      5.61067     10.62556         0.256810     -0.603269     -0.351612
C     14.38384     15.36773     10.35284         0.180438      0.361250     -0.071423
C     10.40319      3.19606      7.29314         0.003461      1.002280     -0.417630
C     10.35913      4.25547      6.23373         0.072720     -0.567261      0.128355
C      0.08601      7.29314      7.29314        -0.037230     -1.013129     -0.171287
C      0.13007      6.23373      6.23373        -0.074060      0.219007      0.390574
C      0.08601      3.19606      3.19606         0.027672      1.429108      0.225371
C      0.13007      4.25547      4.25547        -0.019013     -0.504274     -0.304194
C     10.40319      7.29314      3.19606        -0.005795     -0.340632      0.260796
C     10.35913      6.23373      4.25547         0.031118      0.023128     -0.780828
C      7.29314     10.40319      3.19606        -0.269272      0.020458      0.536950
C      6.23373     10.35913      4.25547         0.127034      0.050726     -0.071899
C      7.29314      0.08601      7.29314        -1.068029     -0.087947     -0.265884
C      6.23373      0.13007      6.23373         0.874374     -0.211810      0.405535
C      3.19606      0.08601      3.19606         0.877003     -0.039415      0.536949
C      4.25547      0.13007      4.25547        -0.581201     -0.115449     -0.675099
C      3.19606     10.40319      7.29314         0.612962     -0.005312     -0.729003
C      4.25547     10.35913      6.23373        -0.260775      0.079214      0.237176
C      3.19606      7.29314     10.40319         0.336708     -1.171356      0.022771
C      4.25547      6.23373     10.35913        -1.097059      0.060122      0.135503
C      7.29314      7.29314      0.08601        -0.444875     -0.413152     -0.022696
C      6.23373      6.23373      0.13007         0.599337      0.219764      0.015303
C      3.19606      3.19606      0.08601         0.460364      0.333648     -0.042138
C      4.25547      4.25547      0.13007        -0.114977     -0.595317     -0.050208
C      7.29314      3.19606     10.40319        -0.408417      0.492339      0.057296
C      6.23373      4.25547     10.35913         0.259562     -0.771915      0.159592
O     10.43466      3.58206      8.50569        -0.027167      0.013652      0.396340
O     10.54374     17.39634      8.50569         0.073905     -0.029462      0.251947
O     10.54374      3.58206     12.47271         0.026315     -0.126752     -0.111007
O     10.43466     17.39634     12.47271        -0.027323     -0.167255     -0.516575
O      8.50569     10.43466      3.58206         0.275263     -0.021543      0.010078
O      8.50569     10.54374     17.39634         0.881939     -0.062826     -0.157069
O     12.47271     10.54374      3.58206        -0.752149      0.082557      0.060545
O     12.47271     10.43466     17.39634        -0.499351      0.035009     -0.067988
O      3.58206      8.50569     10.43466         0.198594      1.041944     -0.063144
O     17.39634      8.50569     10.54374        -0.151555      0.591977      0.060306
O      3.58206     12.47271     10.54374         0.096207     -0.456461      0.030352
O     17.39634     12.47271     10.43466        -0.147605     -0.596989     -0.031381
O      3.58206     10.43466      8.50569         0.082537     -0.092609      0.613857
O     17.39634     10.54374      8.50569         0.020296      0.104635      0.350484
O      3.58206     10.54374     12.47271         0.038030      0.040482     -0.508012
O     17.39634     10.43466     12.47271        -0.238062     -0.039010     -0.659228
O     10.43466      8.50569      3.58206        -0.040594      0.448502      0.138424
O     10.54374      8.50569     17.39634        -0.085072      0.758985     -0.216354
O     10.54374     12.47271      3.58206         0.017463     -0.964905      0.100928
O     10.43466     12.47271     17.39634         0.075413     -0.881317     -0.234377
O      8.50569      3.58206     10.43466         0.596251      0.144280     -0.055972
O      8.50569     17.39634     10.54374         0.551782     -0.180199     -0.002089
O     12.47271      3.58206     10.54374        -0.615908      0.189163      0.005904
O     12.47271     17.39634     10.43466        -0.322446      0.032487     -0.046239
O     11.90042     11.90042     19.56718        -0.275139     -0.314960      0.212822
O     19.56718     19.56718     19.56718         0.327293      0.298827      0.212608
O     19.56718     11.90042     11.90042         0.318491     -0.260338     -0.236617
O     11.90042     19.56718     11.90042        -0.252514      0.307337     -0.334758
O      9.45224      1.03696      9.45224        -0.001846      0.060076     -0.157042
O      1.03696      9.45224      9.45224         0.077395     -0.060773     -0.191629
O      1.03696      1.03696      1.03696         0.114766      0.166697      0.008408
O      9.45224      9.45224      1.03696        -0.104592     -0.113100     -0.006332
Zr     10.48920      2.52580     10.48920        -0.085396     -0.195964     -0.004572
Zr     10.48920     18.45260     10.48920        -0.079518      0.165511      0.242919
Zr     10.48920     10.48920      2.52580        -0.072266     -0.463954     -0.165798
Zr     10.48920     10.48920     18.45260        -0.071520      0.068663      0.510184
Zr      2.52580     10.48920     10.48920        -0.322637      0.242926      0.336416
Zr     18.45260     10.48920     10.48920         0.161119     -0.000346     -0.048896
Pd     13.64620      8.93549      9.16857        -0.040065     -0.046559      0.005492
Pd      5.79417      9.75141      9.90317        -0.094944     -0.043998      0.051222
Pd      6.95186     11.24977     11.78811        -0.028934      0.007935     -0.076163
Pd     12.19621     13.04995      7.33062        -0.029429      0.084120      0.041106
Pd     12.19657      7.74563      7.07397        -0.057460      0.075075      0.089650
Pd      8.30310      7.08585      6.53290        -0.023355      0.009958      0.046754
Pd     10.84988     11.30874      5.56509        -0.012147      0.001141      0.008352
Pd     14.69728      8.54586      6.74572         0.011304     -0.019609     -0.023025
Pd      9.76940     11.70991      8.09290        -0.056371      0.064501      0.033141
Pd      6.65202      6.77308     12.33110         0.082385      0.102551     -0.012746
Pd      6.47392      7.49252      8.34473        -0.050801      0.037035     -0.018433
Pd      7.04398      8.98507     13.76104         0.037774     -0.050672      0.015404
Pd     11.73263      6.57262      9.42620        -0.002673     -0.013875      0.004412
Pd      9.88571      9.23900      6.86384        -0.089943      0.066766      0.003467
Pd      9.04344     13.91461      9.47571         0.004332     -0.034827      0.001014
Pd     10.19003      7.12888     11.44949         0.011441     -0.019026     -0.012942
Pd     10.65893      9.00575      9.45769        -0.088881      0.029852      0.024737
Pd      9.39201     11.20287     10.71118         0.036193      0.088516     -0.045442
Pd      9.01287      6.99420      9.07887        -0.047260     -0.088586      0.062051
Pd      8.88073      7.14517     13.71112         0.029671     -0.071335      0.024845
Pd      8.12168      8.79248     11.29841        -0.025968      0.086806      0.012622
Pd     12.12040     10.42404      7.67396        -0.005662      0.072465      0.082268
Pd      7.23308     11.99911      9.22319        -0.018604      0.006435     -0.010871
Pd      8.11851      9.55720      8.71100        -0.070031      0.013108      0.057025
Pd     14.26814      6.48513      8.45865        -0.013735      0.026313      0.002170
Pd     12.59052      8.34736     11.54193         0.023965     -0.008298      0.049048
Pd      8.85550     11.39487     13.57185         0.000664     -0.036242     -0.102972
Pd     13.86715     11.89658      9.07407        -0.007082      0.019305      0.004216
Pd     12.86476     10.74202     13.16711         0.016695     -0.069435     -0.088818
Pd     14.66419     10.39323     11.20791         0.039128     -0.075945     -0.070228
Pd     12.02513     10.76721     10.67188         0.023107     -0.041697     -0.024801
Pd     11.47061     13.15486      9.86913         0.003172      0.015619      0.067162
Pd     13.52230     12.95051     11.67104         0.055563     -0.088514      0.000644
Pd     11.01814     12.60954     12.49237        -0.037029      0.001029     -0.020458
Pd     11.11289     11.41942     14.97419         0.028292      0.011550     -0.038752
Pd     10.48075      9.51510     12.71133         0.005110     -0.020987     -0.066253
Pd      9.44155      9.37631     15.21535        -0.052532     -0.014107     -0.107435
Pd      8.58233     13.50091     12.05454        -0.022807      0.015625     -0.119395
