152
# total energy = -1023.22991139 eVH     10.35389      5.87395      7.64558         0.498535      0.085472      0.723238
H     10.62451     15.10445      7.64558        -0.099548     -0.063720      0.812102
H     10.62451      5.87395     13.33282         0.146868      0.128886     -0.640329
H     10.35389     15.10445     13.33282        -0.170986     -0.122936     -0.540382
H      7.64558     10.35389      5.87395         0.310629     -0.022199      0.190561
H      7.64558     10.62451     15.10445         0.650346     -0.214047     -0.127980
H     13.33282     10.62451      5.87395        -0.784070     -0.165631      0.205688
H     13.33282     10.35389     15.10445        -0.440667     -0.102940     -0.051826
H      5.87395      7.64558     10.35389         0.212552      1.082286     -0.254915
H     15.10445      7.64558     10.62451        -0.176069      0.471383     -0.117532
H      5.87395     13.33282     10.62451         0.161750     -0.420173     -0.060310
H     15.10445     13.33282     10.35389        -0.131110     -0.919067      0.023985
H      5.87395     10.35389      7.64558         0.132099      0.098504      0.461039
H     15.10445     10.62451      7.64558         0.100861     -0.023924      1.054314
H      5.87395     10.62451     13.33282         0.189599     -0.027299     -0.383194
H     15.10445     10.35389     13.33282        -0.118853     -0.059941     -0.538547
H     10.35389      7.64558      5.87395         0.131705      0.864572      0.188247
H     10.62451      7.64558     15.10445        -0.008697      0.519273     -0.163080
H     10.62451     13.33282      5.87395        -0.009735     -0.580427      0.216837
H     10.35389     13.33282     15.10445        -0.291957     -0.885782     -0.127801
H      7.64558      5.87395     10.35389         0.445163      0.096830     -0.038664
H      7.64558     15.10445     10.62451         0.840688     -0.282580      0.029320
H     13.33282      5.87395     10.62451        -0.449848      0.187271     -0.064713
H     13.33282     15.10445     10.35389        -0.656614     -0.099337      0.168474
H     12.45634     12.45634     19.01126         0.252156      0.264514     -0.229218
H     19.01126     19.01126     19.01126        -0.252111     -0.230186     -0.260624
H     19.01126     12.45634     12.45634        -0.234107      0.272538      0.242096
H     12.45634     19.01126     12.45634         0.224778     -0.262894      0.251177
C     10.35284      5.61067      6.59456        -0.198250     -0.360712     -0.030942
C     10.62556     15.36773      6.59456         0.069205      0.365112     -1.217659
C     10.62556      5.61067     14.38384        -0.058329     -0.252592      0.820257
C     10.35284     15.36773     14.38384         0.038759      0.866718      0.415883
C      6.59456     10.35284      5.61067        -0.364891     -0.036180     -0.173266
C      6.59456     10.62556     15.36773        -0.851092      0.195116      0.373845
C     14.38384     10.62556      5.61067         0.481731      0.306284     -0.498446
C     14.38384     10.35284     15.36773         0.773614     -0.110325      0.444713
C      5.61067      6.59456     10.35284        -0.316297     -0.636451      0.437932
C     15.36773      6.59456     10.62556         0.165053     -0.511695      0.083453
C      5.61067     14.38384     10.62556        -0.143767      0.386898     -0.021887
C     15.36773     14.38384     10.35284         0.385300     -0.038232     -0.095215
C      5.61067     10.35284      6.59456        -0.258905     -0.022998     -0.786419
C     15.36773     10.62556      6.59456         0.611765     -0.269151     -1.338189
C      5.61067     10.62556     14.38384        -0.341653     -0.002482      0.418757
C     15.36773     10.35284     14.38384         0.497912     -0.163379      1.131661
C     10.35284      6.59456      5.61067        -0.174283     -0.463738     -0.439098
C     10.62556      6.59456     15.36773         0.056723     -0.620974      0.271603
C     10.62556     14.38384      5.61067         0.094429      0.990848     -0.492466
C     10.35284     14.38384     15.36773         0.254228      0.595778      0.518587
C      6.59456      5.61067     10.35284        -0.125081     -0.824315      0.074240
C      6.59456     15.36773     10.62556        -1.518701      0.414064      0.114558
C     14.38384      5.61067     10.62556         0.641007     -0.274596     -0.015918
C     14.38384     15.36773     10.35284        -0.427858      0.683597     -0.317481
C     10.40319      3.19606      7.29314         0.005483      0.832584     -0.297264
C     10.35913      4.25547      6.23373        -0.050859     -0.479711      0.498825
C      0.08601      7.29314      7.29314        -0.006438     -0.258633     -0.526001
C      0.13007      6.23373      6.23373         0.032088      0.147985      0.205616
C      0.08601      3.19606      3.19606        -0.010307      0.595342      0.197585
C      0.13007      4.25547      4.25547        -0.092890     -0.177539     -0.192108
C     10.40319      7.29314      3.19606        -0.008518     -0.638105      0.563369
C     10.35913      6.23373      4.25547        -0.041679      0.264621     -0.608843
C      7.29314     10.40319      3.19606        -0.300462      0.026952      0.951350
C      6.23373     10.35913      4.25547         0.169711      0.033934     -0.126398
C      7.29314      0.08601      7.29314        -0.311286     -0.034972     -0.299369
C      6.23373      0.13007      6.23373         0.332156     -0.049901      0.324379
C      3.19606      0.08601      3.19606         0.519428     -0.030124      0.689284
C      4.25547      0.13007      4.25547        -0.093700     -0.027204     -0.369903
C      3.19606     10.40319      7.29314         0.708220      0.000913     -0.418559
C      4.25547     10.35913      6.23373        -0.158980      0.029492      0.086979
C      3.19606      7.29314     10.40319         0.677343     -1.290465     -0.012028
C      4.25547      6.23373     10.35913        -0.653442      0.909648      0.078137
C      7.29314      7.29314      0.08601        -0.700160     -0.182267     -0.017018
C      6.23373      6.23373      0.13007         0.218979      0.199211      0.020349
C      3.19606      3.19606      0.08601         0.270573      0.297652     -0.019785
C      4.25547      4.25547      0.13007        -0.070147     -0.039997     -0.001603
C      7.29314      3.19606     10.40319        -0.358539      1.004905      0.017188
C      6.23373      4.25547     10.35913         1.072251     -0.015953      0.007277
O     10.43466      3.58206      8.50569        -0.041909      0.049936      0.389526
O     10.54374     17.39634      8.50569        -0.043297     -0.173654      0.593551
O     10.54374      3.58206     12.47271         0.049415      0.077369     -0.325526
O     10.43466     17.39634     12.47271        -0.009403     -0.139539     -0.631941
O      8.50569     10.43466      3.58206         0.329549     -0.032229     -0.034361
O      8.50569     10.54374     17.39634         0.473856      0.043448     -0.144509
O     12.47271     10.54374      3.58206        -0.479411      0.010176      0.090415
O     12.47271     10.43466     17.39634        -0.793569      0.000116     -0.186821
O      3.58206      8.50569     10.43466         0.112198      1.047262      0.016625
O     17.39634      8.50569     10.54374        -0.025584      0.305637      0.075012
O      3.58206     12.47271     10.54374         0.073892     -0.464713      0.050933
O     17.39634     12.47271     10.43466        -0.176411     -0.893245      0.057501
O      3.58206     10.43466      8.50569        -0.060509     -0.068331      0.338573
O     17.39634     10.54374      8.50569        -0.130007      0.041488      0.461959
O      3.58206     10.54374     12.47271         0.094615     -0.022173     -0.633725
O     17.39634     10.43466     12.47271        -0.190897      0.056743     -0.796650
O     10.43466      8.50569      3.58206         0.027907      0.640419      0.159307
O     10.54374      8.50569     17.39634         0.062338      0.439110     -0.078666
O     10.54374     12.47271      3.58206        -0.005274     -0.695272      0.221974
O     10.43466     12.47271     17.39634         0.032977     -0.847941     -0.239329
O      8.50569      3.58206     10.43466         0.437868      0.022100     -0.039446
O      8.50569     17.39634     10.54374         0.704132     -0.263948     -0.065494
O     12.47271      3.58206     10.54374        -0.461499      0.152832      0.043220
O     12.47271     17.39634     10.43466        -0.555305     -0.020574     -0.005138
O     11.90042     11.90042     19.56718        -0.293766     -0.313925      0.256824
O     19.56718     19.56718     19.56718         0.283340      0.260276      0.310974
O     19.56718     11.90042     11.90042         0.258412     -0.322530     -0.246487
O     11.90042     19.56718     11.90042        -0.272425      0.276379     -0.267586
O      9.45224      1.03696      9.45224        -0.082857      0.040307     -0.071413
O      1.03696      9.45224      9.45224         0.011333     -0.173078     -0.099206
O      1.03696      1.03696      1.03696         0.002312      0.069699      0.177658
O      9.45224      9.45224      1.03696        -0.063037     -0.104621      0.104221
Zr     10.48920      2.52580     10.48920         0.004347     -0.095501     -0.044313
Zr     10.48920     18.45260     10.48920         0.139986      0.369297      0.013579
Zr     10.48920     10.48920      2.52580         0.014193     -0.015700     -0.368738
Zr     10.48920     10.48920     18.45260        -0.151533     -0.046338      0.378938
Zr      2.52580     10.48920     10.48920        -0.335657      0.247589     -0.110176
Zr     18.45260     10.48920     10.48920         0.280222     -0.010058     -0.279378
Pd      8.96867     10.11009     13.31296        -0.073119     -0.024494      0.028639
Pd     10.67434      9.69624     10.84406         0.006213     -0.028700     -0.113326
Pd     13.71390      8.37526     12.58301        -0.027629      0.070695      0.012660
Pd     10.99074     10.90334     14.95702        -0.031709     -0.021023      0.036536
Pd     12.91075     11.00548     12.96114         0.016183      0.051563      0.055665
Pd     15.10889     11.08998     11.31391        -0.041643     -0.045929     -0.000639
Pd      6.58451      7.72661     12.33081         0.009980      0.028746      0.012423
Pd      9.31241      7.28348      9.86358        -0.001755      0.010179     -0.033167
Pd      9.21301      7.46048     12.62996         0.018328     -0.001093     -0.033207
Pd     11.61970      7.14394     11.42441         0.019664      0.041687     -0.027547
Pd     11.70551      7.98217      8.91232        -0.007224     -0.041359     -0.073670
Pd      7.38404     11.77141     11.76633        -0.037854     -0.007126     -0.003976
Pd      9.21778     14.78756      9.45011        -0.005908     -0.068207      0.001585
Pd      8.41107     12.54810     14.24162        -0.046357     -0.006519      0.023439
Pd     14.09497     14.24562      8.31636         0.008439     -0.012871      0.003764
Pd     11.50263     13.64664      8.72814         0.022889     -0.025241      0.034281
Pd     14.16547     11.68693      8.89663        -0.012445     -0.007371      0.007999
Pd      8.73084     14.02718     12.05578        -0.008085     -0.008866      0.027018
Pd     12.26842     13.48335     14.13000        -0.016471      0.048255     -0.002622
Pd     11.35407     14.42308     11.44372         0.001460     -0.051461      0.010977
Pd     14.08717     13.58928     12.27242        -0.015573     -0.019404     -0.016473
Pd     12.42873     12.16156     10.72841        -0.032792     -0.085314      0.023676
Pd     12.75362     12.50660      6.68838        -0.002266      0.025110      0.004695
Pd     13.93625      8.99986      8.00917         0.023345     -0.018380     -0.069744
Pd      6.93623      8.49092      8.75067         0.006766     -0.008141     -0.009921
Pd      5.62365     10.10754     10.69111         0.007311     -0.017243     -0.050846
Pd      9.39902      9.44553      8.11420        -0.003971     -0.008191     -0.088613
Pd      8.56102      7.00846      7.23644        -0.016991     -0.018650     -0.022783
Pd      9.76538     12.13394     10.33045         0.010278     -0.043402      0.127227
Pd     11.64300     10.80223      8.50556        -0.013061      0.004360     -0.065492
Pd     11.58847      9.09992      6.47877         0.013465     -0.010085     -0.053550
Pd     10.07720     11.35865      6.37149         0.020336     -0.032925     -0.138141
Ir     11.27671      9.00081     13.20835        -0.020896      0.025029     -0.074607
Ir     13.21570      9.61100     10.39572         0.016860     -0.031330      0.012219
Ir     10.55319     12.20513     12.71906        -0.011003     -0.013760      0.006229
Ir      7.61216     10.99693      9.23829         0.015602     -0.009424     -0.007481
Ir      8.81009     12.64929      8.07983         0.090938     -0.009576     -0.009627
Ir      8.18555      9.29873     10.99986        -0.014645      0.000243     -0.003403
