152
# total energy = -1061.44986529 eVH     10.35389      5.87395      7.64558        -0.195706      0.124177      1.035540
H     10.62451     15.10445      7.64558         0.447812     -0.116827      0.763847
H     10.62451      5.87395     13.33282        -0.093752      0.098141     -0.457593
H     10.35389     15.10445     13.33282         0.094159     -0.184766     -0.398164
H      7.64558     10.35389      5.87395         0.903536      0.199195      0.215126
H      7.64558     10.62451     15.10445         0.209851     -0.022317     -0.073321
H     13.33282     10.62451      5.87395        -0.604102     -0.050964      0.162283
H     13.33282     10.35389     15.10445        -0.323408     -0.058668     -0.071957
H      5.87395      7.64558     10.35389         0.128401      0.363102     -0.075706
H     15.10445      7.64558     10.62451        -0.138018      0.460230      0.187860
H      5.87395     13.33282     10.62451         0.107798     -0.631253      0.100656
H     15.10445     13.33282     10.35389        -0.231496     -0.435713      0.091015
H      5.87395     10.35389      7.64558         0.156477      0.272375      0.381136
H     15.10445     10.62451      7.64558        -0.131079     -0.392550      0.757853
H      5.87395     10.62451     13.33282         0.036540      0.157366     -0.703353
H     15.10445     10.35389     13.33282         0.085391     -0.258069     -0.746335
H     10.35389      7.64558      5.87395        -0.148082      0.444043      0.220030
H     10.62451      7.64558     15.10445         0.370349      0.612977     -0.119006
H     10.62451     13.33282      5.87395         0.096117     -0.563838      0.103400
H     10.35389     13.33282     15.10445         0.261790     -0.731612     -0.083636
H      7.64558      5.87395     10.35389         0.475846      0.144398     -0.150910
H      7.64558     15.10445     10.62451         0.398440     -0.150270      0.415333
H     13.33282      5.87395     10.62451        -0.387382      0.158824     -0.074581
H     13.33282     15.10445     10.35389        -0.582090     -0.291153      0.122045
H     12.45634     12.45634     19.01126         0.231167      0.265078     -0.248663
H     19.01126     19.01126     19.01126        -0.261223     -0.259508     -0.229951
H     19.01126     12.45634     12.45634        -0.234026      0.275389      0.236570
H     12.45634     19.01126     12.45634         0.276647     -0.210801      0.255217
C     10.35284      5.61067      6.59456         0.283296     -0.303789     -0.803161
C     10.62556     15.36773      6.59456        -0.209038      0.638100     -0.260102
C     10.62556      5.61067     14.38384         0.256034     -0.240961      0.486822
C     10.35284     15.36773     14.38384        -0.111919      0.273053      0.256078
C      6.59456     10.35284      5.61067        -0.847823     -0.101364     -0.239944
C      6.59456     10.62556     15.36773        -0.512621      0.044126      0.344004
C     14.38384     10.62556      5.61067         0.790961     -0.037462     -0.645168
C     14.38384     10.35284     15.36773         0.263447     -0.077094      0.356344
C      5.61067      6.59456     10.35284        -0.399396     -0.361277      0.076987
C     15.36773      6.59456     10.62556         0.308622     -0.502432     -0.078159
C      5.61067     14.38384     10.62556        -0.147101      0.514522     -0.379967
C     15.36773     14.38384     10.35284         0.419538      0.846948     -0.096284
C      5.61067     10.35284      6.59456        -0.316305     -0.163428     -0.104018
C     15.36773     10.62556      6.59456         0.220731      0.291538     -0.594169
C      5.61067     10.62556     14.38384        -0.336336     -0.046008      1.203367
C     15.36773     10.35284     14.38384         0.289596     -0.058020      1.006824
C     10.35284      6.59456      5.61067         0.080288     -0.252479     -0.508317
C     10.62556      6.59456     15.36773         0.016524     -0.787071      0.132753
C     10.62556     14.38384      5.61067        -0.386665      0.170826     -0.907254
C     10.35284     14.38384     15.36773        -0.261016      0.854294      0.267073
C      6.59456      5.61067     10.35284        -0.350009     -0.287808      0.252255
C      6.59456     15.36773     10.62556        -0.297294      0.528829     -0.046036
C     14.38384      5.61067     10.62556         0.470993     -0.370069      0.060264
C     14.38384     15.36773     10.35284         0.973987      0.265874     -0.063485
C     10.40319      3.19606      7.29314         0.007783      0.547848     -0.317880
C     10.35913      4.25547      6.23373        -0.013825     -0.529887      0.423780
C      0.08601      7.29314      7.29314        -0.013848     -0.858466     -0.561349
C      0.13007      6.23373      6.23373        -0.183670      0.871953      0.149090
C      0.08601      3.19606      3.19606        -0.011473      0.407606      0.383866
C      0.13007      4.25547      4.25547         0.063037     -0.220592     -0.580226
C     10.40319      7.29314      3.19606        -0.048318     -1.061956      0.764373
C     10.35913      6.23373      4.25547         0.013548      0.344353     -0.222246
C      7.29314     10.40319      3.19606        -1.286299     -0.083844      0.323533
C      6.23373     10.35913      4.25547         0.267050      0.019723     -0.703030
C      7.29314      0.08601      7.29314        -0.834069     -0.001521     -0.413997
C      6.23373      0.13007      6.23373         0.335485      0.055996      0.127833
C      3.19606      0.08601      3.19606         0.326966      0.000501      0.430970
C      4.25547      0.13007      4.25547        -0.285901     -0.033618     -0.181765
C      3.19606     10.40319      7.29314         0.493370     -0.041388     -1.022630
C      4.25547     10.35913      6.23373        -0.316025     -0.074186      0.097425
C      3.19606      7.29314     10.40319         1.081767     -0.446855      0.008553
C      4.25547      6.23373     10.35913        -0.193412      0.166883     -0.002456
C      7.29314      7.29314      0.08601        -0.487480     -0.280899     -0.007058
C      6.23373      6.23373      0.13007         0.180559      0.154207     -0.151454
C      3.19606      3.19606      0.08601         0.352525      0.867035     -0.007849
C      4.25547      4.25547      0.13007        -0.558651     -0.188221      0.041564
C      7.29314      3.19606     10.40319        -0.195158      0.504170      0.025451
C      6.23373      4.25547     10.35913        -0.012479     -0.365404      0.044263
O     10.43466      3.58206      8.50569        -0.022616      0.134772      0.390268
O     10.54374     17.39634      8.50569         0.041509      0.054873      0.362813
O     10.54374      3.58206     12.47271         0.041646      0.194436     -0.572844
O     10.43466     17.39634     12.47271         0.027724     -0.009127     -0.449380
O      8.50569     10.43466      3.58206         0.761495     -0.061208     -0.008750
O      8.50569     10.54374     17.39634         0.853884      0.021889     -0.162042
O     12.47271     10.54374      3.58206        -0.348546      0.038211      0.079973
O     12.47271     10.43466     17.39634        -0.378943     -0.036724      0.038593
O      3.58206      8.50569     10.43466        -0.103183      0.263171     -0.077167
O     17.39634      8.50569     10.54374        -0.108933      0.446592      0.041511
O      3.58206     12.47271     10.54374         0.149238     -0.814612     -0.020550
O     17.39634     12.47271     10.43466        -0.240492     -0.636734     -0.014519
O      3.58206     10.43466      8.50569         0.128864     -0.032233      0.791188
O     17.39634     10.54374      8.50569         0.002480      0.035209      0.340007
O      3.58206     10.54374     12.47271         0.067082      0.017600     -0.460698
O     17.39634     10.43466     12.47271         0.045525      0.012706     -0.245687
O     10.43466      8.50569      3.58206        -0.056899      0.579150     -0.068907
O     10.54374      8.50569     17.39634         0.027111      0.874682     -0.206918
O     10.54374     12.47271      3.58206         0.068941     -0.370732      0.077862
O     10.43466     12.47271     17.39634        -0.056103     -0.640508     -0.198099
O      8.50569      3.58206     10.43466         0.345575      0.080305     -0.052816
O      8.50569     17.39634     10.54374         0.551993     -0.162281     -0.013012
O     12.47271      3.58206     10.54374        -0.365819      0.052401      0.035109
O     12.47271     17.39634     10.43466        -0.838098     -0.145590      0.067781
O     11.90042     11.90042     19.56718        -0.244503     -0.282686      0.238005
O     19.56718     19.56718     19.56718         0.299379      0.294360      0.249830
O     19.56718     11.90042     11.90042         0.229303     -0.304819     -0.277730
O     11.90042     19.56718     11.90042        -0.274253      0.179922     -0.274415
O      9.45224      1.03696      9.45224        -0.108939      0.088156     -0.085438
O      1.03696      9.45224      9.45224         0.127004     -0.146309     -0.172726
O      1.03696      1.03696      1.03696         0.139329      0.207135     -0.002894
O      9.45224      9.45224      1.03696        -0.212060     -0.169258      0.031882
Zr     10.48920      2.52580     10.48920        -0.004260     -0.231837      0.150224
Zr     10.48920     18.45260     10.48920        -0.307011      0.304755     -0.154702
Zr     10.48920     10.48920      2.52580         0.350952      0.403527     -0.233149
Zr     10.48920     10.48920     18.45260         0.003047      0.019778      0.470265
Zr      2.52580     10.48920     10.48920        -0.554241      0.023895      0.335436
Zr     18.45260     10.48920     10.48920         0.275418     -0.147259      0.006333
Pd      9.20257     14.63574      9.21092        -0.001103      0.014106      0.008230
Pd      8.48046     13.22098     13.82393         0.001248     -0.010863     -0.020122
Pd     12.16480     14.10957      8.65565        -0.006036      0.018695     -0.011861
Pd     12.25663     12.75382     10.90181        -0.008415      0.000151     -0.003050
Pd     11.78903      7.08776     11.89722        -0.016172     -0.001460      0.001622
Pd     11.16970     15.31231     10.90786         0.000663     -0.004203      0.013143
Pd      9.62314     13.15911     11.40516        -0.015563      0.009047      0.027234
Pd     14.03626     12.38445      7.95463         0.003167      0.025495      0.012340
Pd     11.57947     11.77072      6.74915        -0.000535     -0.008692     -0.015943
Pd      7.45129      8.53932      7.18373        -0.009274     -0.008753      0.000358
Pd      8.62357     12.07668      6.90666         0.006157     -0.005300      0.009308
Pd      9.73313      9.89820      8.00234        -0.005267      0.004253     -0.007965
Pd      8.47654     14.72459      6.56696         0.002637      0.001800      0.017827
Pd     12.04284      9.05660      6.84378        -0.015749      0.003033     -0.020188
Pd      9.92311     10.02828      5.40211        -0.007269      0.010431      0.007647
Pd      6.90344      9.23166     12.16807         0.023573     -0.008657      0.002058
Pd     12.40041      6.52599      7.67639         0.002728     -0.008279     -0.013675
Pd      5.57552     10.68984     10.11091         0.007560      0.006861     -0.001326
Pd      7.56156      6.67809     12.70618         0.001712     -0.010060     -0.010208
Ir     11.29116      9.54750     12.84005         0.002696     -0.010337      0.003204
Ir     13.08735      9.24024     11.07855        -0.016032      0.012388     -0.000900
Ir      9.15954      8.42577     13.74997        -0.016734      0.011302      0.004700
Ir     10.27541     10.36923     15.07107         0.017147      0.009252     -0.010028
Ir      7.11452     11.91884     11.84440         0.003108     -0.019039     -0.028428
Ir     14.41514     11.20321     10.32079        -0.025677     -0.015016     -0.017146
Ir     12.28449     10.62046      9.05160         0.016487      0.007337      0.051526
Ir      8.93538     10.79878     12.89291        -0.017767     -0.008019     -0.011944
Ir     10.02807     10.28148     10.61572         0.006868      0.014979      0.010615
Ir     13.31121     11.20341     12.61318         0.001290     -0.013630      0.010406
Ir     11.10604     12.04367     13.33813        -0.011023      0.003308     -0.003767
Ir      7.96390     11.72514      9.50809        -0.020359      0.003852      0.039200
Ir     11.28392      8.15476      9.45088        -0.016875      0.001424     -0.000148
Ir      6.97697     13.57093      8.35770         0.004708      0.017466     -0.000553
Ir      9.06582      7.28725      8.79223        -0.005188      0.014584     -0.000909
Ir      7.74046      9.21017      9.70520         0.004448     -0.001989      0.007803
Ir     10.37094     12.33464      8.98301        -0.025174     -0.021393      0.008030
Ir      9.32293      7.89204     11.24943         0.009344      0.009328      0.001449
Ir     13.75064      8.46281      8.79407        -0.017857      0.011716      0.006622
