152
# total energy = -1006.00389743 eVH     10.35389      5.87395      7.64558         0.259613      0.033635      0.640321
H     10.62451     15.10445      7.64558        -0.107407     -0.140763      0.512083
H     10.62451      5.87395     13.33282         0.484580      0.121535     -0.583486
H     10.35389     15.10445     13.33282         0.079434     -0.183159     -0.557070
H      7.64558     10.35389      5.87395         0.372465      0.096414      0.161732
H      7.64558     10.62451     15.10445         0.697450      0.470794     -0.039332
H     13.33282     10.62451      5.87395        -0.535086      0.423108      0.073658
H     13.33282     10.35389     15.10445        -0.802794     -0.092842      0.008386
H      5.87395      7.64558     10.35389         0.239418      0.682980     -0.405039
H     15.10445      7.64558     10.62451        -0.095535      0.478839      0.282562
H      5.87395     13.33282     10.62451         0.160012     -0.695697     -0.156621
H     15.10445     13.33282     10.35389        -0.011463     -1.020345     -0.326880
H      5.87395     10.35389      7.64558         0.251327      0.330223      0.766825
H     15.10445     10.62451      7.64558        -0.107112      0.402460      0.758087
H      5.87395     10.62451     13.33282         0.133684      0.327043     -0.690407
H     15.10445     10.35389     13.33282        -0.056256     -0.069751     -0.686616
H     10.35389      7.64558      5.87395         0.395305      1.056351     -0.010842
H     10.62451      7.64558     15.10445         0.536599      0.537477     -0.120719
H     10.62451     13.33282      5.87395        -0.398303     -0.848902      0.185467
H     10.35389     13.33282     15.10445        -0.045178     -0.433205     -0.216263
H      7.64558      5.87395     10.35389         0.848630      0.097104     -0.289351
H      7.64558     15.10445     10.62451         0.837809     -0.196225      0.014117
H     13.33282      5.87395     10.62451        -0.805329      0.197962      0.587255
H     13.33282     15.10445     10.35389        -0.443578     -0.112444     -0.129013
H     12.45634     12.45634     19.01126         0.235259      0.270178     -0.240043
H     19.01126     19.01126     19.01126        -0.262452     -0.240599     -0.261049
H     19.01126     12.45634     12.45634        -0.266927      0.268953      0.218138
H     12.45634     19.01126     12.45634         0.232008     -0.255111      0.279119
C     10.35284      5.61067      6.59456        -0.433904     -0.748498      0.210913
C     10.62556     15.36773      6.59456         0.060692      0.368573     -0.294839
C     10.62556      5.61067     14.38384        -0.333512     -0.358684     -0.306930
C     10.35284     15.36773     14.38384        -0.009415      0.330290      0.544746
C      6.59456     10.35284      5.61067        -0.199061     -0.002213     -0.402678
C      6.59456     10.62556     15.36773        -0.266699     -0.221116      0.809209
C     14.38384     10.62556      5.61067        -0.271156     -0.401027     -0.517373
C     14.38384     10.35284     15.36773         0.977377     -0.053397      0.257630
C      5.61067      6.59456     10.35284        -0.540066      0.006889      0.187961
C     15.36773      6.59456     10.62556         0.524095      0.027294     -0.251958
C      5.61067     14.38384     10.62556        -0.341609      0.971235      0.076954
C     15.36773     14.38384     10.35284         0.318551      1.031585      0.055397
C      5.61067     10.35284      6.59456        -0.178098     -0.329812     -0.628291
C     15.36773     10.62556      6.59456         0.448860     -0.291306      0.119814
C      5.61067     10.62556     14.38384        -0.731116     -0.356120     -0.055446
C     15.36773     10.35284     14.38384         0.386409     -0.060026      1.004344
C     10.35284      6.59456      5.61067        -0.201870     -0.192294     -0.662122
C     10.62556      6.59456     15.36773        -0.267461      0.121143      0.447077
C     10.62556     14.38384      5.61067         0.206952      1.068106     -0.347631
C     10.35284     14.38384     15.36773         0.028988      0.534460      0.433396
C      6.59456      5.61067     10.35284        -0.179884     -0.627986      0.231807
C      6.59456     15.36773     10.62556        -1.025201      0.301170      0.079696
C     14.38384      5.61067     10.62556         0.491773     -0.541860     -0.365322
C     14.38384     15.36773     10.35284         0.215791      0.452994     -0.102596
C     10.40319      3.19606      7.29314         0.006585      0.696937     -0.490945
C     10.35913      4.25547      6.23373         0.086274     -0.734857     -0.015609
C      0.08601      7.29314      7.29314        -0.043953     -0.411148     -0.308193
C      0.13007      6.23373      6.23373        -0.022366      0.081788      0.567600
C      0.08601      3.19606      3.19606        -0.018725      1.246598      0.279462
C      0.13007      4.25547      4.25547         0.048755     -0.777491     -0.151559
C     10.40319      7.29314      3.19606         0.008997     -0.348127      0.360123
C     10.35913      6.23373      4.25547         0.027711      0.016340     -0.909567
C      7.29314     10.40319      3.19606        -0.370189      0.019063      0.563840
C      6.23373     10.35913      4.25547         0.207227      0.046582     -0.134345
C      7.29314      0.08601      7.29314        -0.525972     -0.064066     -0.371662
C      6.23373      0.13007      6.23373         0.679597     -0.046133      0.493685
C      3.19606      0.08601      3.19606         0.659178     -0.037817      0.564091
C      4.25547      0.13007      4.25547        -0.572423     -0.080522     -0.555375
C      3.19606     10.40319      7.29314         0.485197     -0.022117     -0.783180
C      4.25547     10.35913      6.23373        -0.513571      0.026763      0.202653
C      3.19606      7.29314     10.40319         0.282758     -1.248359      0.037129
C      4.25547      6.23373     10.35913        -0.694966      0.098651      0.152059
C      7.29314      7.29314      0.08601        -0.406300     -0.371210     -0.028332
C      6.23373      6.23373      0.13007         0.468192      0.213624     -0.021730
C      3.19606      3.19606      0.08601         0.504380      0.372022     -0.039073
C      4.25547      4.25547      0.13007        -0.148329     -0.652184     -0.034714
C      7.29314      3.19606     10.40319        -0.321660      0.418822      0.074678
C      6.23373      4.25547     10.35913         0.252643     -0.696539      0.135412
O     10.43466      3.58206      8.50569        -0.013814      0.101927      0.510574
O     10.54374     17.39634      8.50569         0.036636     -0.174385      0.481558
O     10.54374      3.58206     12.47271         0.058235     -0.082089     -0.188892
O     10.43466     17.39634     12.47271        -0.038224     -0.182702     -0.569665
O      8.50569     10.43466      3.58206         0.344496      0.006272      0.038541
O      8.50569     10.54374     17.39634         0.632918      0.033218     -0.145490
O     12.47271     10.54374      3.58206        -0.668503      0.082200      0.090606
O     12.47271     10.43466     17.39634        -0.439885      0.027497     -0.111500
O      3.58206      8.50569     10.43466         0.183215      1.028741     -0.050127
O     17.39634      8.50569     10.54374        -0.163193      0.539905      0.076384
O      3.58206     12.47271     10.54374         0.082845     -0.361398      0.048885
O     17.39634     12.47271     10.43466        -0.157695     -0.545275     -0.022680
O      3.58206     10.43466      8.50569         0.075966     -0.061333      0.595360
O     17.39634     10.54374      8.50569        -0.110953      0.065703      0.521442
O      3.58206     10.54374     12.47271         0.059985      0.052696     -0.537063
O     17.39634     10.43466     12.47271        -0.215101     -0.040398     -0.588210
O     10.43466      8.50569      3.58206        -0.038812      0.475588      0.133854
O     10.54374      8.50569     17.39634         0.047931      0.530010     -0.161253
O     10.54374     12.47271      3.58206        -0.004798     -1.001163      0.207725
O     10.43466     12.47271     17.39634         0.042007     -0.736064     -0.173867
O      8.50569      3.58206     10.43466         0.506355      0.147060     -0.053642
O      8.50569     17.39634     10.54374         0.485472     -0.197750      0.013738
O     12.47271      3.58206     10.54374        -0.644063      0.236663      0.008072
O     12.47271     17.39634     10.43466        -0.212926      0.067945     -0.056431
O     11.90042     11.90042     19.56718        -0.239559     -0.288790      0.247741
O     19.56718     19.56718     19.56718         0.309982      0.295181      0.299965
O     19.56718     11.90042     11.90042         0.289971     -0.264941     -0.233200
O     11.90042     19.56718     11.90042        -0.242865      0.290985     -0.337425
O      9.45224      1.03696      9.45224        -0.020674      0.086181     -0.072601
O      1.03696      9.45224      9.45224         0.091037     -0.090590     -0.138993
O      1.03696      1.03696      1.03696         0.088879      0.190217      0.046587
O      9.45224      9.45224      1.03696        -0.112272     -0.099645      0.030534
Zr     10.48920      2.52580     10.48920        -0.132930     -0.291928     -0.035553
Zr     10.48920     18.45260     10.48920        -0.072069      0.213681      0.096894
Zr     10.48920     10.48920      2.52580         0.069109     -0.412291     -0.249121
Zr     10.48920     10.48920     18.45260        -0.270067     -0.089358      0.324861
Zr      2.52580     10.48920     10.48920        -0.375526      0.237512      0.306868
Zr     18.45260     10.48920     10.48920         0.241446      0.000479     -0.222046
Pd     13.60106      8.99101      9.19461        -0.005620     -0.003069     -0.003960
Pd      5.62981      9.86582     10.12240         0.001701      0.000519     -0.003966
Pd      6.76984     11.84585     11.70894        -0.000201     -0.000856      0.000127
Pd     12.05521     12.99175      7.35878        -0.004829     -0.002321      0.001282
Pd     11.87407      7.73411      7.44928         0.000258     -0.006266     -0.003816
Pd      8.31730      6.82058      6.51935        -0.000798     -0.009321     -0.005469
Pd     10.55013     11.16732      5.65628        -0.016741     -0.001387      0.000786
Pd     14.39755      8.54667      6.72466        -0.002252      0.000019     -0.001340
Pd      9.66441     11.72702      8.15584         0.002210     -0.005956      0.005975
Pd      6.72318      6.78551     12.34314        -0.002279     -0.001105      0.001858
Pd      6.63292      8.29494      7.85903         0.011807      0.012881     -0.013022
Pd      6.52307      8.48940     14.39466         0.000051     -0.000891      0.002900
Pd     11.48023      6.50502      9.95004        -0.001524     -0.004808     -0.000429
Pd      9.45331      9.19587      7.17423        -0.005105     -0.004065      0.001111
Pd      8.97841     13.99108      9.37208        -0.000159     -0.002173      0.005063
Pd      9.42770      7.36631     11.69299        -0.003087     -0.000451     -0.003468
Pd     10.63521      8.95314      9.66861         0.003272     -0.003701     -0.007634
Pd      9.33945     11.57549     10.74312        -0.002570      0.003159      0.004431
Pd      8.85683      7.07145      9.10186        -0.002647     -0.002404     -0.004924
Pd      8.55465      6.58027     14.23148         0.000004     -0.000315     -0.001206
Pd      7.61130      9.31765     12.04017        -0.004347     -0.001947      0.005125
Pd     11.93708     10.37048      7.70014        -0.000734     -0.004000     -0.013763
Pd      7.12912     12.01313      9.06692         0.001450     -0.003207      0.000455
Pd      8.15458      9.62432      9.48756         0.004265     -0.001874      0.009794
Pd     14.00891      6.50064      8.52515        -0.000095     -0.001601      0.000036
Pd     12.62674      8.40765     11.56226        -0.004263     -0.001718     -0.001898
Pd      8.75823     11.57008     13.41667        -0.001650     -0.000688      0.004644
Pd     13.86370     11.90479      8.96830        -0.004863     -0.004743     -0.001814
Pd     12.92917     10.69834     13.07569        -0.002365     -0.005163     -0.000643
Pd     14.75671     10.42390     11.12040        -0.004510     -0.006029     -0.001769
Pd     12.04331     10.89615     10.53830        -0.007602     -0.002407     -0.003039
Pd     11.44891     13.35081      9.92817         0.000243      0.001697      0.002319
Pd     13.59694     12.90754     11.62590         0.000932     -0.004905     -0.001247
Pd     11.11262     12.62982     12.54662        -0.000837     -0.000629      0.002388
Pd     10.94230     11.06699     14.81839         0.001097     -0.001044     -0.000002
Pd     10.49382      9.71866     12.37649        -0.005876     -0.001083     -0.002664
Pd      9.08446      9.14121     14.43833         0.000920     -0.000893      0.002677
Pd      8.79317     13.86653     12.07611        -0.001458      0.001152      0.007443
