152
# total energy = -1024.45245738 eVH     10.35389      5.87395      7.64558         0.485053      0.025676      0.752421
H     10.62451     15.10445      7.64558         0.067122     -0.201062      0.622554
H     10.62451      5.87395     13.33282         0.104243      0.148518     -0.588229
H     10.35389     15.10445     13.33282        -0.512690     -0.024911     -0.755771
H      7.64558     10.35389      5.87395         0.350612      0.026881      0.162932
H      7.64558     10.62451     15.10445         0.966302     -0.238417      0.059305
H     13.33282     10.62451      5.87395        -0.802357     -0.131326      0.153226
H     13.33282     10.35389     15.10445        -0.906911     -0.455132      0.217983
H      5.87395      7.64558     10.35389         0.159109      0.725629     -0.303461
H     15.10445      7.64558     10.62451        -0.141808      0.380735     -0.015313
H      5.87395     13.33282     10.62451         0.155878     -0.501388     -0.099743
H     15.10445     13.33282     10.35389        -0.090524     -1.176831      0.110210
H      5.87395     10.35389      7.64558         0.138220      0.166885      0.503321
H     15.10445     10.62451      7.64558         0.006493      0.110876      1.022957
H      5.87395     10.62451     13.33282         0.068797     -0.039117     -0.471391
H     15.10445     10.35389     13.33282        -0.191380     -0.134629     -0.416894
H     10.35389      7.64558      5.87395         0.085707      0.995503      0.221477
H     10.62451      7.64558     15.10445         0.001794      0.270940     -0.156013
H     10.62451     13.33282      5.87395        -0.085111     -0.391770      0.318612
H     10.35389     13.33282     15.10445        -0.432429     -0.565531      0.002961
H      7.64558      5.87395     10.35389         0.546395      0.083608     -0.115709
H      7.64558     15.10445     10.62451         0.958932     -0.199682     -0.210972
H     13.33282      5.87395     10.62451        -0.588503      0.087427     -0.068318
H     13.33282     15.10445     10.35389        -0.576835     -0.065893      0.263413
H     12.45634     12.45634     19.01126         0.238186      0.276996     -0.237290
H     19.01126     19.01126     19.01126        -0.247953     -0.249301     -0.242717
H     19.01126     12.45634     12.45634        -0.267076      0.264885      0.219194
H     12.45634     19.01126     12.45634         0.236968     -0.266858      0.240556
C     10.35284      5.61067      6.59456        -0.218851     -0.677933      0.083440
C     10.62556     15.36773      6.59456        -0.050694      0.378572     -0.843279
C     10.62556      5.61067     14.38384        -0.006399     -0.058453      0.723816
C     10.35284     15.36773     14.38384         0.208677      0.694763      0.164345
C      6.59456     10.35284      5.61067        -0.363970     -0.015059     -0.305380
C      6.59456     10.62556     15.36773        -1.111530      0.262146      0.283581
C     14.38384     10.62556      5.61067         0.441435      0.374326     -0.677298
C     14.38384     10.35284     15.36773         1.118315      0.048409      0.209939
C      5.61067      6.59456     10.35284        -0.436715     -0.371484      0.355730
C     15.36773      6.59456     10.62556         0.188677     -0.495458      0.009656
C      5.61067     14.38384     10.62556        -0.205900      0.540905     -0.010476
C     15.36773     14.38384     10.35284         0.308500      0.044341     -0.115767
C      5.61067     10.35284      6.59456        -0.332935     -0.084669     -0.989766
C     15.36773     10.62556      6.59456         0.896778     -0.342769     -0.953113
C      5.61067     10.62556     14.38384        -0.442009      0.030250      0.301777
C     15.36773     10.35284     14.38384         0.647063     -0.097915      1.043785
C     10.35284      6.59456      5.61067        -0.252094     -0.562949     -0.943543
C     10.62556      6.59456     15.36773         0.062551     -0.255876      0.048869
C     10.62556     14.38384      5.61067         0.060731      1.198574     -0.414506
C     10.35284     14.38384     15.36773         0.276693      0.176881      0.726840
C      6.59456      5.61067     10.35284        -0.192729     -0.739463      0.172003
C      6.59456     15.36773     10.62556        -1.260150      0.243430      0.183401
C     14.38384      5.61067     10.62556         1.085877     -0.299201      0.041014
C     14.38384     15.36773     10.35284        -0.455613      0.778841     -0.407867
C     10.40319      3.19606      7.29314        -0.035682      0.917778     -0.428017
C     10.35913      4.25547      6.23373         0.055846     -0.537007      0.531891
C      0.08601      7.29314      7.29314        -0.020902     -0.393048     -0.347767
C      0.13007      6.23373      6.23373        -0.024528      0.014098      0.097754
C      0.08601      3.19606      3.19606         0.010955      1.274657      0.196473
C      0.13007      4.25547      4.25547        -0.046761     -0.226257     -0.203645
C     10.40319      7.29314      3.19606        -0.013412     -1.056109      0.373443
C     10.35913      6.23373      4.25547         0.042336      0.485303     -0.665929
C      7.29314     10.40319      3.19606        -0.318508      0.028862      0.726087
C      6.23373     10.35913      4.25547         0.138159      0.059163     -0.100180
C      7.29314      0.08601      7.29314        -0.663527     -0.017549     -0.267779
C      6.23373      0.13007      6.23373         0.378420     -0.081453      0.564284
C      3.19606      0.08601      3.19606         1.004878     -0.005912      0.256806
C      4.25547      0.13007      4.25547        -0.170866     -0.037346     -0.526743
C      3.19606     10.40319      7.29314         0.358174     -0.008615     -0.923992
C      4.25547     10.35913      6.23373        -0.272271      0.090874      0.232756
C      3.19606      7.29314     10.40319         0.522531     -1.364796     -0.037091
C      4.25547      6.23373     10.35913        -0.564463      0.724206      0.102736
C      7.29314      7.29314      0.08601        -0.389073     -0.241097      0.003147
C      6.23373      6.23373      0.13007         0.158291      0.154164     -0.002076
C      3.19606      3.19606      0.08601         0.267919      0.241952     -0.016899
C      4.25547      4.25547      0.13007        -0.124304     -0.051663      0.005246
C      7.29314      3.19606     10.40319        -0.397111      0.618539      0.006562
C      6.23373      4.25547     10.35913         1.061042     -0.146767      0.052179
O     10.43466      3.58206      8.50569        -0.023321      0.034239      0.438395
O     10.54374     17.39634      8.50569        -0.005818     -0.116021      0.468497
O     10.54374      3.58206     12.47271         0.040853     -0.106704     -0.130166
O     10.43466     17.39634     12.47271        -0.058182     -0.042389     -0.476846
O      8.50569     10.43466      3.58206         0.289425     -0.028136     -0.040317
O      8.50569     10.54374     17.39634         0.718582      0.029044     -0.205197
O     12.47271     10.54374      3.58206        -0.783263     -0.037755      0.147839
O     12.47271     10.43466     17.39634        -0.285670     -0.030024      0.033462
O      3.58206      8.50569     10.43466         0.160110      1.118912     -0.030200
O     17.39634      8.50569     10.54374        -0.101200      0.444466      0.059362
O      3.58206     12.47271     10.54374         0.067718     -0.394979      0.035273
O     17.39634     12.47271     10.43466        -0.157404     -0.669593     -0.010570
O      3.58206     10.43466      8.50569         0.068372     -0.067738      0.793671
O     17.39634     10.54374      8.50569        -0.062264      0.044086      0.330489
O      3.58206     10.54374     12.47271        -0.011749      0.037905     -0.240153
O     17.39634     10.43466     12.47271        -0.255430     -0.004577     -0.719398
O     10.43466      8.50569      3.58206         0.119010      0.837060      0.191889
O     10.54374      8.50569     17.39634         0.032781      0.596284     -0.141552
O     10.54374     12.47271      3.58206         0.005680     -1.011219      0.175987
O     10.43466     12.47271     17.39634        -0.043825     -0.954721     -0.213898
O      8.50569      3.58206     10.43466         0.566924      0.131305     -0.016010
O      8.50569     17.39634     10.54374         0.502209     -0.192710     -0.010723
O     12.47271      3.58206     10.54374        -0.480978      0.163170      0.059172
O     12.47271     17.39634     10.43466        -0.402688      0.035178     -0.008018
O     11.90042     11.90042     19.56718        -0.269720     -0.324678      0.257149
O     19.56718     19.56718     19.56718         0.277413      0.293699      0.284069
O     19.56718     11.90042     11.90042         0.301866     -0.300213     -0.202900
O     11.90042     19.56718     11.90042        -0.263089      0.284940     -0.249331
O      9.45224      1.03696      9.45224        -0.080488      0.050039     -0.058887
O      1.03696      9.45224      9.45224         0.043234     -0.153292     -0.113602
O      1.03696      1.03696      1.03696         0.025211      0.121355      0.195886
O      9.45224      9.45224      1.03696        -0.069459     -0.086495      0.117223
Zr     10.48920      2.52580     10.48920        -0.050908     -0.126817     -0.167654
Zr     10.48920     18.45260     10.48920         0.007690      0.214549     -0.026672
Zr     10.48920     10.48920      2.52580        -0.165776     -0.194275     -0.512135
Zr     10.48920     10.48920     18.45260         0.010106     -0.029172      0.433015
Zr      2.52580     10.48920     10.48920        -0.370861      0.310990      0.168762
Zr     18.45260     10.48920     10.48920         0.204749      0.067977     -0.203306
Pd      8.27690      9.65652     13.27227        -0.007155     -0.017758     -0.012980
Pd     10.47731      9.42507     10.20083        -0.027088     -0.001283     -0.003811
Pd     12.96698      8.78819     12.47926         0.001619      0.006742      0.005277
Pd     10.29638     10.83586     15.07013        -0.006778     -0.005910     -0.006562
Pd     12.75777     11.36923     13.61764        -0.000953      0.011975     -0.001820
Pd     14.84846     10.55422     11.35813         0.001803     -0.008862     -0.000047
Pd      6.90162      7.44894     12.30401        -0.013258     -0.001606     -0.002174
Pd      9.20629      7.17183      9.46826        -0.014953      0.002505      0.003961
Pd      9.59371      7.53534     12.22285        -0.009996      0.007166      0.008351
Pd     11.75273      7.06431     10.79734         0.002608     -0.008613      0.007037
Pd     11.60935      7.81851      8.25766         0.018329      0.004686     -0.006779
Pd      7.17700     11.65607     11.52725        -0.005549      0.004735     -0.004776
Pd      9.27335     14.31104      9.24349        -0.000875     -0.004139      0.000219
Pd      8.11211     12.29816     14.01484         0.006035     -0.000498     -0.011129
Pd     14.22112     14.16018      8.35766        -0.001534      0.002917      0.006310
Pd     11.72489     13.26938      8.80104        -0.005578      0.004342      0.002307
Pd     14.09816     11.58678      9.02062        -0.010593     -0.005621      0.005706
Pd      8.67972     13.97916     11.98572        -0.005658     -0.003721      0.011157
Pd     12.22244     14.02149     13.92062        -0.008401     -0.017533     -0.006397
Pd     11.39773     14.13558     11.28293         0.008296     -0.000825      0.005960
Pd     13.99728     13.23588     12.09249        -0.004402      0.001496      0.006083
Pd     12.26221     11.47781     10.92787        -0.002566      0.001947      0.009025
Pd     13.00190     12.58464      6.60504        -0.007370     -0.001852     -0.009589
Pd     13.95196      8.83784      7.57959        -0.018285     -0.000750      0.017625
Pd      6.95950      8.43229      8.38969         0.014533     -0.010139     -0.005180
Pd      5.55141     10.00901     10.07114        -0.010087     -0.007072      0.001293
Pd      9.38040      9.44361      7.44192        -0.002479     -0.002882      0.008840
Pd      8.47244      6.95092      6.86916        -0.000250     -0.000705      0.011981
Pd      9.67157     11.94097     10.50932        -0.008874     -0.000980      0.000874
Pd     11.77516     10.60200      8.06864        -0.011461     -0.016827     -0.001223
Pd     11.79145      8.93579      5.85266        -0.009642     -0.005137      0.006826
Pd     10.61198     11.33325      5.73689        -0.015803      0.000048      0.006165
Ir     10.71529      9.86000     12.70602        -0.009078     -0.005883      0.007742
Ir     13.12779      9.22305      9.95325         0.016104     -0.009355     -0.021267
Ir     10.46380     12.31397     12.88685        -0.004864      0.009882      0.020984
Ir      7.76039     10.94077      9.06925        -0.003774      0.008851     -0.016149
Ir      9.55293     12.04838      7.95359        -0.003424     -0.000714      0.008997
Ir      7.99996      9.14812     10.74318         0.012480     -0.007210      0.028810
