35
# total energy = -301.58122521 eVC      6.68664     10.29497      7.65237        -0.008544      0.009079      0.001624
C      8.07354      9.94306      7.58018        -0.007663      0.006673      0.000253
C      9.41832      5.70912      7.65032        -0.006047      0.007826     -0.000247
C      1.46281      5.34819      7.66887         0.007935     -0.008784      0.006786
C      4.19572      0.76261      7.63529         0.006171     -0.006679      0.000808
C      2.80868      1.11439      7.56576         0.007145     -0.008369      0.001095
C      0.70538      4.16531      7.64561        -0.008806      0.007583      0.000398
C      1.09193      2.78795      7.57219        -0.004263      0.007587      0.001738
C      5.35946      1.54947      7.64647        -0.004778      0.002982     -0.000963
C      5.52260      9.50856      7.67191         0.006750     -0.004107      0.009426
C     10.17631      6.89178      7.64323         0.007929     -0.004523      0.001425
C      9.79030      8.26958      7.57530         0.008519     -0.007521     -0.000455
C      0.77641      6.57753      7.64834        -0.007578     -0.002689      0.000610
C      1.26064      7.92503      7.57964         0.003766     -0.006110     -0.000183
C     10.10511      4.47977      7.64261         0.005096      0.004904      0.001405
C      9.62146      3.13254      7.56817         0.002755      0.006673     -0.003296
C      4.27654     10.16465      7.65205         0.010348      0.006995      0.001103
C      2.94155      9.64732      7.58089         0.002876      0.001537     -0.000749
C      6.60555      0.89305      7.63808        -0.003422     -0.004989     -0.000923
C      7.94067      1.40991      7.56587        -0.008296     -0.000633     -0.005731
N      8.81017      0.31913      7.47708        -0.006247      0.011275      0.001603
N      0.14921      8.76720      7.48657         0.011848     -0.003197      0.001324
N      8.53977      8.70391      7.60122        -0.018952     -0.013975     -0.001618
N      2.34266      2.35345      7.59417         0.013491      0.013685     -0.002188
N      2.07224     10.73781      7.48795         0.002913     -0.013714      0.004400
N     10.73390      2.29060      7.48143        -0.012068      0.002034      0.000991
N      2.57354      8.32509      7.60032        -0.003599      0.004808     -0.004260
N      8.30857      2.73225      7.58276         0.005459     -0.007353     -0.009908
O      5.32862      2.87876      7.62198         0.005771     -0.001742     -0.010498
O      5.55317      8.17910      7.67911        -0.003959      0.002520      0.008267
O      8.08885      5.70758      7.62163        -0.002900     -0.007506     -0.007688
O      2.79253      5.34997      7.67976         0.001673      0.006345      0.007467
Zr      6.53677      4.46094      7.58591         0.016986     -0.017915     -0.021917
Zr      4.34457      6.59698      7.68721        -0.014988      0.013373      0.016098
Zr      0.02701     10.81020      6.85228        -0.005323      0.003922      0.003800
