152
# total energy = -1024.42653197 eVH     10.35389      5.87395      7.64558         0.479393      0.026721      0.733833
H     10.62451     15.10445      7.64558         0.060775     -0.201286      0.630388
H     10.62451      5.87395     13.33282         0.092507      0.158288     -0.570929
H     10.35389     15.10445     13.33282        -0.480771     -0.032241     -0.749078
H      7.64558     10.35389      5.87395         0.344816      0.026353      0.160074
H      7.64558     10.62451     15.10445         0.917114     -0.253688      0.042168
H     13.33282     10.62451      5.87395        -0.786122     -0.125991      0.149084
H     13.33282     10.35389     15.10445        -0.897511     -0.421517      0.210101
H      5.87395      7.64558     10.35389         0.162107      0.737123     -0.333109
H     15.10445      7.64558     10.62451        -0.139706      0.382825     -0.018785
H      5.87395     13.33282     10.62451         0.157701     -0.516213     -0.105546
H     15.10445     13.33282     10.35389        -0.092537     -1.200176      0.089487
H      5.87395     10.35389      7.64558         0.137792      0.176165      0.520088
H     15.10445     10.62451      7.64558         0.011428      0.091999      1.047779
H      5.87395     10.62451     13.33282         0.076408     -0.041848     -0.457733
H     15.10445     10.35389     13.33282        -0.168202     -0.162993     -0.450995
H     10.35389      7.64558      5.87395         0.089153      1.027614      0.231554
H     10.62451      7.64558     15.10445         0.000837      0.270196     -0.162547
H     10.62451     13.33282      5.87395        -0.092918     -0.386361      0.319831
H     10.35389     13.33282     15.10445        -0.449412     -0.588932     -0.000203
H      7.64558      5.87395     10.35389         0.520303      0.092580     -0.103990
H      7.64558     15.10445     10.62451         0.933581     -0.221564     -0.179479
H     13.33282      5.87395     10.62451        -0.593292      0.095314     -0.068394
H     13.33282     15.10445     10.35389        -0.596582     -0.060240      0.243781
H     12.45634     12.45634     19.01126         0.235401      0.278446     -0.237327
H     19.01126     19.01126     19.01126        -0.249474     -0.249157     -0.241926
H     19.01126     12.45634     12.45634        -0.266880      0.264979      0.219789
H     12.45634     19.01126     12.45634         0.237711     -0.266589      0.239500
C     10.35284      5.61067      6.59456        -0.211168     -0.695778      0.101026
C     10.62556     15.36773      6.59456        -0.049488      0.379090     -0.857906
C     10.62556      5.61067     14.38384        -0.005294     -0.053504      0.693704
C     10.35284     15.36773     14.38384         0.192119      0.698780      0.159708
C      6.59456     10.35284      5.61067        -0.347559     -0.016217     -0.306186
C      6.59456     10.62556     15.36773        -1.090157      0.258547      0.285452
C     14.38384     10.62556      5.61067         0.410979      0.383145     -0.693314
C     14.38384     10.35284     15.36773         1.059618      0.025071      0.248041
C      5.61067      6.59456     10.35284        -0.415883     -0.378574      0.366352
C     15.36773      6.59456     10.62556         0.188632     -0.493329      0.013903
C      5.61067     14.38384     10.62556        -0.199480      0.576715      0.001938
C     15.36773     14.38384     10.35284         0.338712      0.040624     -0.116632
C      5.61067     10.35284      6.59456        -0.329546     -0.088403     -1.023678
C     15.36773     10.62556      6.59456         0.913313     -0.345991     -0.976816
C      5.61067     10.62556     14.38384        -0.418179      0.028180      0.303421
C     15.36773     10.35284     14.38384         0.655301     -0.096158      1.079061
C     10.35284      6.59456      5.61067        -0.222735     -0.585562     -0.945896
C     10.62556      6.59456     15.36773         0.058924     -0.264612      0.043237
C     10.62556     14.38384      5.61067         0.065607      1.197475     -0.417580
C     10.35284     14.38384     15.36773         0.277624      0.153273      0.709932
C      6.59456      5.61067     10.35284        -0.183735     -0.736064      0.143688
C      6.59456     15.36773     10.62556        -1.220996      0.244969      0.165845
C     14.38384      5.61067     10.62556         1.058732     -0.296832      0.037397
C     14.38384     15.36773     10.35284        -0.468704      0.815925     -0.399496
C     10.40319      3.19606      7.29314        -0.033233      0.871800     -0.414555
C     10.35913      4.25547      6.23373         0.053770     -0.503835      0.551616
C      0.08601      7.29314      7.29314        -0.022249     -0.413177     -0.349386
C      0.13007      6.23373      6.23373        -0.023900      0.016292      0.101989
C      0.08601      3.19606      3.19606         0.010396      1.275573      0.191336
C      0.13007      4.25547      4.25547        -0.045897     -0.218772     -0.198485
C     10.40319      7.29314      3.19606        -0.014929     -1.052753      0.371562
C     10.35913      6.23373      4.25547         0.034268      0.475480     -0.676689
C      7.29314     10.40319      3.19606        -0.311771      0.032476      0.722329
C      6.23373     10.35913      4.25547         0.150132      0.070583     -0.106215
C      7.29314      0.08601      7.29314        -0.659591     -0.020438     -0.278245
C      6.23373      0.13007      6.23373         0.383951     -0.075573      0.537254
C      3.19606      0.08601      3.19606         1.011386     -0.004799      0.257534
C      4.25547      0.13007      4.25547        -0.162066     -0.037283     -0.534746
C      3.19606     10.40319      7.29314         0.363449     -0.010690     -0.957743
C      4.25547     10.35913      6.23373        -0.283771      0.090570      0.243363
C      3.19606      7.29314     10.40319         0.519557     -1.326880     -0.038498
C      4.25547      6.23373     10.35913        -0.545891      0.745504      0.112883
C      7.29314      7.29314      0.08601        -0.391613     -0.227859      0.000259
C      6.23373      6.23373      0.13007         0.155227      0.144149     -0.003448
C      3.19606      3.19606      0.08601         0.258449      0.252553     -0.017202
C      4.25547      4.25547      0.13007        -0.122200     -0.055037      0.006859
C      7.29314      3.19606     10.40319        -0.392958      0.641711      0.008108
C      6.23373      4.25547     10.35913         1.094945     -0.107828      0.056479
O     10.43466      3.58206      8.50569        -0.024729      0.046169      0.446981
O     10.54374     17.39634      8.50569        -0.006584     -0.111009      0.460917
O     10.54374      3.58206     12.47271         0.039802     -0.108071     -0.128136
O     10.43466     17.39634     12.47271        -0.058247     -0.045121     -0.474319
O      8.50569     10.43466      3.58206         0.288475     -0.031608     -0.035533
O      8.50569     10.54374     17.39634         0.723461      0.026637     -0.200548
O     12.47271     10.54374      3.58206        -0.793431     -0.037162      0.148867
O     12.47271     10.43466     17.39634        -0.281318     -0.028473      0.032768
O      3.58206      8.50569     10.43466         0.158395      1.094227     -0.036481
O     17.39634      8.50569     10.54374        -0.098090      0.433147      0.058447
O      3.58206     12.47271     10.54374         0.067731     -0.399807      0.036189
O     17.39634     12.47271     10.43466        -0.159732     -0.682069     -0.009332
O      3.58206     10.43466      8.50569         0.067203     -0.067616      0.804920
O     17.39634     10.54374      8.50569        -0.060573      0.046623      0.336114
O      3.58206     10.54374     12.47271        -0.012888      0.037305     -0.242080
O     17.39634     10.43466     12.47271        -0.254547      0.001199     -0.713447
O     10.43466      8.50569      3.58206         0.118275      0.831683      0.190938
O     10.54374      8.50569     17.39634         0.031965      0.610706     -0.146346
O     10.54374     12.47271      3.58206         0.007657     -1.010815      0.175349
O     10.43466     12.47271     17.39634        -0.040347     -0.922132     -0.205611
O      8.50569      3.58206     10.43466         0.560774      0.124547     -0.015526
O      8.50569     17.39634     10.54374         0.510888     -0.195749     -0.009603
O     12.47271      3.58206     10.54374        -0.474987      0.159776      0.058652
O     12.47271     17.39634     10.43466        -0.415523      0.024628     -0.005581
O     11.90042     11.90042     19.56718        -0.266007     -0.328103      0.256378
O     19.56718     19.56718     19.56718         0.279133      0.292367      0.282721
O     19.56718     11.90042     11.90042         0.300997     -0.300628     -0.202957
O     11.90042     19.56718     11.90042        -0.266256      0.285356     -0.248999
O      9.45224      1.03696      9.45224        -0.080482      0.046567     -0.059223
O      1.03696      9.45224      9.45224         0.042745     -0.152812     -0.116784
O      1.03696      1.03696      1.03696         0.025101      0.119380      0.196069
O      9.45224      9.45224      1.03696        -0.068913     -0.087478      0.117091
Zr     10.48920      2.52580     10.48920        -0.050851     -0.120593     -0.170112
Zr     10.48920     18.45260     10.48920         0.010120      0.215485     -0.022463
Zr     10.48920     10.48920      2.52580        -0.164926     -0.192746     -0.514159
Zr     10.48920     10.48920     18.45260        -0.003476     -0.004197      0.434217
Zr      2.52580     10.48920     10.48920        -0.365683      0.295617      0.189168
Zr     18.45260     10.48920     10.48920         0.204811      0.058438     -0.201786
Pd      8.31818      9.68960     13.23504         0.001699     -0.010687     -0.001973
Pd     10.49524      9.45153     10.18662         0.008246      0.005023      0.021426
Pd     13.03498      8.77970     12.46709        -0.014625     -0.027749     -0.012391
Pd     10.29444     10.77873     15.05313         0.019115      0.022337      0.011276
Pd     12.82384     11.35417     13.55896        -0.006226      0.033930      0.015095
Pd     14.84966     10.61931     11.36366         0.011089     -0.010704     -0.012014
Pd      6.87330      7.52832     12.28933         0.031041     -0.011985      0.002067
Pd      9.21572      7.19923      9.45307        -0.014467     -0.011271      0.006942
Pd      9.57129      7.54232     12.19351        -0.012673      0.025991      0.020687
Pd     11.75507      7.09049     10.80687         0.015239     -0.002123      0.001329
Pd     11.63189      7.82842      8.26507         0.000869     -0.002016     -0.018616
Pd      7.16234     11.67850     11.52049         0.000340      0.015049      0.029572
Pd      9.29767     14.31731      9.26344        -0.012234     -0.012492     -0.006780
Pd      8.14844     12.29477     14.01262        -0.020710      0.021768      0.008036
Pd     14.23967     14.19016      8.34914         0.006070     -0.002128     -0.012343
Pd     11.75247     13.29632      8.79537        -0.022391     -0.000327     -0.000012
Pd     14.13102     11.61310      8.99867        -0.023011     -0.014692      0.029298
Pd      8.71594     13.98508     12.01085        -0.006974     -0.003019     -0.006374
Pd     12.22369     13.99165     13.95345         0.016252     -0.003581     -0.030707
Pd     11.41801     14.14383     11.29687        -0.023713     -0.031728      0.006386
Pd     14.01084     13.30059     12.09452        -0.023411     -0.020858      0.016836
Pd     12.27326     11.51856     10.89061        -0.017434     -0.002419      0.021255
Pd     13.02717     12.60916      6.58887        -0.014610     -0.009203      0.011379
Pd     13.97084      8.83741      7.57388        -0.020789     -0.006772      0.009168
Pd      6.97275      8.46370      8.37303        -0.009193     -0.026613     -0.012490
Pd      5.55292     10.03448     10.04301        -0.016533     -0.016875      0.024750
Pd      9.40392      9.46479      7.45494        -0.001993     -0.031820     -0.007088
Pd      8.48137      6.97813      6.85851        -0.019589      0.000202      0.000989
Pd      9.65886     11.94541     10.53024         0.048207      0.013600      0.013104
Pd     11.81522     10.61402      8.05223        -0.016707     -0.016097     -0.002026
Pd     11.79105      8.92503      5.85458         0.002395      0.009768      0.005050
Pd     10.62937     11.33593      5.73662         0.003835      0.003569     -0.006970
Ir     10.77381      9.82952     12.69264        -0.017328     -0.020833     -0.017056
Ir     13.15524      9.25143      9.94943        -0.011036     -0.011479      0.005221
Ir     10.50260     12.28435     12.89495        -0.037415      0.031502     -0.023042
Ir      7.76131     10.99135      9.04983         0.014378      0.003463     -0.026616
Ir      9.60111     12.05674      7.96625        -0.037601      0.021059      0.024443
Ir      8.00961      9.18907     10.71015         0.006225     -0.035810      0.086456
