152
# total energy = -1060.13833779 eVH     10.35389      5.87395      7.64558        -0.325610      0.099051      1.093886
H     10.62451     15.10445      7.64558         0.060029     -0.067167      0.903079
H     10.62451      5.87395     13.33282        -0.264965      0.071152     -0.782051
H     10.35389     15.10445     13.33282         0.088642     -0.304688     -0.822566
H      7.64558     10.35389      5.87395         0.893377     -0.196176      0.206600
H      7.64558     10.62451     15.10445         0.318644     -0.031698     -0.059880
H     13.33282     10.62451      5.87395        -0.885928      0.220994      0.222582
H     13.33282     10.35389     15.10445        -0.279753     -0.028484     -0.062343
H      5.87395      7.64558     10.35389         0.093699      0.420218     -0.016368
H     15.10445      7.64558     10.62451        -0.037280      0.435139     -0.034641
H      5.87395     13.33282     10.62451        -0.021075     -0.972928      0.075905
H     15.10445     13.33282     10.35389        -0.072800     -0.324019      0.000948
H      5.87395     10.35389      7.64558         0.319859      0.061537      0.369213
H     15.10445     10.62451      7.64558        -0.120968     -0.161989      0.664949
H      5.87395     10.62451     13.33282        -0.059887      0.454523     -0.593765
H     15.10445     10.35389     13.33282         0.229385     -0.647626     -0.861189
H     10.35389      7.64558      5.87395        -0.024389      0.502100      0.346153
H     10.62451      7.64558     15.10445         0.343252      0.796514      0.002352
H     10.62451     13.33282      5.87395         0.157037     -0.566343      0.199284
H     10.35389     13.33282     15.10445         0.034531     -0.288289     -0.167584
H      7.64558      5.87395     10.35389         0.371253      0.113025      0.064322
H      7.64558     15.10445     10.62451         0.386213     -0.127903      0.178123
H     13.33282      5.87395     10.62451        -0.305924      0.136851     -0.013588
H     13.33282     15.10445     10.35389        -0.660050     -0.099143      0.132372
H     12.45634     12.45634     19.01126         0.258991      0.271931     -0.226908
H     19.01126     19.01126     19.01126        -0.247127     -0.268103     -0.244768
H     19.01126     12.45634     12.45634        -0.249280      0.271411      0.237180
H     12.45634     19.01126     12.45634         0.289826     -0.235595      0.235097
C     10.35284      5.61067      6.59456         0.406082     -0.426273     -1.364368
C     10.62556     15.36773      6.59456        -0.165342      0.606089     -0.658480
C     10.62556      5.61067     14.38384         0.364763     -0.280572      0.770711
C     10.35284     15.36773     14.38384        -0.204941      0.204793      1.021763
C      6.59456     10.35284      5.61067        -1.396113      0.031887     -0.231089
C      6.59456     10.62556     15.36773        -0.674663      0.064823      0.358375
C     14.38384     10.62556      5.61067         1.300058     -0.185904     -0.628106
C     14.38384     10.35284     15.36773         0.316376     -0.129132      0.345584
C      5.61067      6.59456     10.35284        -0.275956     -0.675953     -0.029286
C     15.36773      6.59456     10.62556         0.408408     -0.862523      0.031524
C      5.61067     14.38384     10.62556        -0.144886      1.201570     -0.223435
C     15.36773     14.38384     10.35284         0.511560      0.702607     -0.036363
C      5.61067     10.35284      6.59456        -0.378367     -0.102365     -0.792382
C     15.36773     10.62556      6.59456         0.407725      0.106043     -0.691171
C      5.61067     10.62556     14.38384        -0.420982     -0.165568      1.218344
C     15.36773     10.35284     14.38384         0.244408      0.220948      1.427743
C     10.35284      6.59456      5.61067        -0.069200     -0.749383     -0.555192
C     10.62556      6.59456     15.36773        -0.145680     -0.988586      0.377533
C     10.62556     14.38384      5.61067        -0.491899      0.372467     -0.739055
C     10.35284     14.38384     15.36773        -0.175611      0.768684      0.502466
C      6.59456      5.61067     10.35284        -0.565658     -0.337565      0.002991
C      6.59456     15.36773     10.62556        -0.369895      0.452463      0.062052
C     14.38384      5.61067     10.62556         0.431473     -0.308542      0.009041
C     14.38384     15.36773     10.35284         1.136048      0.497783     -0.075245
C     10.40319      3.19606      7.29314        -0.005578      0.755817     -0.330542
C     10.35913      4.25547      6.23373         0.021203     -0.383521      0.288472
C      0.08601      7.29314      7.29314        -0.018726     -0.373972     -0.507087
C      0.13007      6.23373      6.23373        -0.046217      0.890075      0.094795
C      0.08601      3.19606      3.19606        -0.007486      0.693183      0.261314
C      0.13007      4.25547      4.25547         0.042845     -0.264149     -0.544907
C     10.40319      7.29314      3.19606        -0.064277     -1.117272      0.610362
C     10.35913      6.23373      4.25547        -0.045488      0.345944     -0.199951
C      7.29314     10.40319      3.19606        -1.094340     -0.055443      0.198392
C      6.23373     10.35913      4.25547         0.378418      0.100172     -0.515561
C      7.29314      0.08601      7.29314        -0.462112      0.029948     -0.457679
C      6.23373      0.13007      6.23373         0.181221      0.124150      0.123391
C      3.19606      0.08601      3.19606         0.699468      0.024010      0.173746
C      4.25547      0.13007      4.25547        -0.170160     -0.048394     -0.366343
C      3.19606     10.40319      7.29314         0.355132     -0.025388     -0.949404
C      4.25547     10.35913      6.23373        -0.127759     -0.056538      0.112313
C      3.19606      7.29314     10.40319         0.613189     -0.399635      0.002420
C      4.25547      6.23373     10.35913        -0.117474      0.177028      0.012857
C      7.29314      7.29314      0.08601        -0.427780     -0.298531     -0.015769
C      6.23373      6.23373      0.13007         0.153066      0.153393     -0.059003
C      3.19606      3.19606      0.08601         0.293327      0.490459     -0.025335
C      4.25547      4.25547      0.13007        -0.401643     -0.239034     -0.031531
C      7.29314      3.19606     10.40319        -0.283866      0.594144     -0.010693
C      6.23373      4.25547     10.35913         0.017964     -0.091109      0.013886
O     10.43466      3.58206      8.50569        -0.026489      0.080435      0.308644
O     10.54374     17.39634      8.50569         0.065352     -0.126197      0.598498
O     10.54374      3.58206     12.47271         0.029425      0.101625     -0.398693
O     10.43466     17.39634     12.47271         0.094345     -0.062019     -0.427322
O      8.50569     10.43466      3.58206         0.737066     -0.071708      0.014742
O      8.50569     10.54374     17.39634         0.516403      0.060264     -0.102967
O     12.47271     10.54374      3.58206        -0.654189      0.110497      0.209797
O     12.47271     10.43466     17.39634        -0.275967      0.005330      0.034097
O      3.58206      8.50569     10.43466         0.035158      0.444688     -0.061178
O     17.39634      8.50569     10.54374        -0.053366      0.448664      0.055899
O      3.58206     12.47271     10.54374         0.102997     -0.587607      0.004751
O     17.39634     12.47271     10.43466        -0.179857     -0.741194     -0.052101
O      3.58206     10.43466      8.50569         0.211507     -0.061932      0.810608
O     17.39634     10.54374      8.50569        -0.082210      0.073748      0.510071
O      3.58206     10.54374     12.47271        -0.002119     -0.006359     -0.263292
O     17.39634     10.43466     12.47271         0.038052     -0.010933     -0.229673
O     10.43466      8.50569      3.58206        -0.106723      0.532131     -0.101143
O     10.54374      8.50569     17.39634         0.057888      0.509314     -0.088675
O     10.54374     12.47271      3.58206         0.103117     -0.639013      0.130242
O     10.43466     12.47271     17.39634        -0.067019     -0.677573     -0.267412
O      8.50569      3.58206     10.43466         0.397242      0.022719     -0.045314
O      8.50569     17.39634     10.54374         0.641604     -0.153737      0.046668
O     12.47271      3.58206     10.54374        -0.517837      0.121648      0.028569
O     12.47271     17.39634     10.43466        -0.623746     -0.125567      0.039997
O     11.90042     11.90042     19.56718        -0.279096     -0.305419      0.223840
O     19.56718     19.56718     19.56718         0.309361      0.323491      0.298189
O     19.56718     11.90042     11.90042         0.284308     -0.326031     -0.235996
O     11.90042     19.56718     11.90042        -0.314006      0.229311     -0.201015
O      9.45224      1.03696      9.45224        -0.072058      0.083413     -0.082642
O      1.03696      9.45224      9.45224         0.098161     -0.105680     -0.062470
O      1.03696      1.03696      1.03696         0.080128      0.052356      0.098276
O      9.45224      9.45224      1.03696        -0.057796     -0.125963      0.135801
Zr     10.48920      2.52580     10.48920         0.044712     -0.090421      0.121112
Zr     10.48920     18.45260     10.48920        -0.184223      0.246105     -0.362188
Zr     10.48920     10.48920      2.52580         0.109707      0.361544     -0.346144
Zr     10.48920     10.48920     18.45260        -0.076681     -0.259448      0.229938
Zr      2.52580     10.48920     10.48920        -0.239146      0.134660      0.240909
Zr     18.45260     10.48920     10.48920         0.198410     -0.137802     -0.012198
Pd      9.35940     14.28941      9.32545        -0.005014      0.012410     -0.037930
Pd      8.58751     13.63243     13.04329         0.000015     -0.000045      0.028897
Pd     12.01846     14.40881      8.74048         0.018095     -0.002581      0.007045
Pd     12.77301     12.88141     10.66556        -0.063716     -0.010582      0.039767
Pd     12.11858      7.19848     12.67818         0.004534     -0.006100     -0.000102
Pd     11.16571     14.89533     11.45782        -0.014169      0.022786     -0.013736
Pd     10.05055     12.54159     11.10284        -0.062447      0.043905     -0.046373
Pd     13.47961     12.15294      7.97933         0.010070      0.010755      0.012894
Pd     11.47743     11.53904      6.11190         0.008523      0.014518     -0.000957
Pd      7.94406      8.38893      7.52611         0.000695     -0.037183     -0.009804
Pd      8.72302     11.75621      6.84768        -0.000555      0.006974      0.007773
Pd     10.32964      9.45493      8.14764        -0.024888     -0.000621      0.014513
Pd      8.50062     14.46283      6.79881        -0.010623      0.003525     -0.015242
Pd     12.40025      9.01070      6.55964        -0.010294      0.029476      0.039287
Pd      9.71649      9.60790      5.57254         0.009222      0.005501      0.003728
Pd      6.80151      9.44640     12.13350         0.045145      0.023727      0.003659
Pd     12.17412      6.74048      7.95164         0.013081      0.000599      0.002019
Pd      5.91721     10.48670      9.68499        -0.000041     -0.004904      0.009560
Pd      7.54938      7.24339     13.40980         0.000995     -0.011505     -0.015059
Ir     11.74419      9.78418     13.06482         0.006099     -0.024412      0.009992
Ir     13.55556      9.05363     11.47160        -0.008563     -0.001701      0.019784
Ir      9.43274      8.86057     14.00764        -0.019650     -0.037894      0.023664
Ir     10.50272     11.04670     14.85451         0.007019     -0.026011      0.071935
Ir      7.26913     12.01811     11.33729         0.029208     -0.022401      0.018847
Ir     14.65978     10.89995     10.13522        -0.003491      0.023923      0.030775
Ir     12.16581     10.57028      9.68299        -0.016645      0.010275     -0.019932
Ir      8.73059     10.98672     12.99062        -0.032772      0.046654     -0.051350
Ir     10.10873      9.91567     11.18288        -0.010770      0.002492     -0.034626
Ir     13.75725     11.41742     12.46809        -0.026554      0.007519      0.039564
Ir     11.62721     12.37065     13.08261        -0.051554     -0.003776      0.000242
Ir      8.50205     11.09630      9.33817        -0.027118      0.035564      0.000201
Ir     11.59052      8.03015     10.14158        -0.006904     -0.011345      0.007250
Ir      7.21169     13.02675      8.65240         0.040108     -0.012070      0.013475
Ir      9.54650      6.96224      9.23984         0.011273      0.004752      0.009773
Ir      8.05530      8.76423     10.06022         0.004988      0.006266      0.005835
Ir     10.72288     12.12334      8.50829        -0.005847     -0.001539      0.002565
Ir      9.51293      7.56926     11.75678         0.001835      0.006386     -0.014012
Ir     13.66096      8.79477      8.83533         0.027954     -0.008100      0.007364
