152
# total energy = -1003.81191736 eVH     10.35389      5.87395      7.64558        -0.231127      0.212363      0.685179
H     10.62451     15.10445      7.64558        -0.357534     -0.123349      0.836564
H     10.62451      5.87395     13.33282         0.358331      0.040474     -0.845348
H     10.35389     15.10445     13.33282         0.036408     -0.172325     -0.515051
H      7.64558     10.35389      5.87395         0.533973      0.072727     -0.006822
H      7.64558     10.62451     15.10445         0.728321      0.567182     -0.064665
H     13.33282     10.62451      5.87395        -0.532212     -0.146598      0.324702
H     13.33282     10.35389     15.10445        -0.625003     -0.096109     -0.043538
H      5.87395      7.64558     10.35389         0.082304      1.593485      0.188456
H     15.10445      7.64558     10.62451        -0.063143      0.597885      0.005789
H      5.87395     13.33282     10.62451         0.209344     -0.796765      0.111936
H     15.10445     13.33282     10.35389         0.023540     -1.189608      0.060954
H      5.87395     10.35389      7.64558         0.020723      0.085162      0.662967
H     15.10445     10.62451      7.64558        -0.142992      0.663225      1.305271
H      5.87395     10.62451     13.33282        -0.064683      0.459980     -1.416983
H     15.10445     10.35389     13.33282         0.563381      0.020149     -1.053374
H     10.35389      7.64558      5.87395         0.208509      1.511181      0.051111
H     10.62451      7.64558     15.10445         0.552167      0.991268     -0.075717
H     10.62451     13.33282      5.87395        -0.586183     -0.731278      0.193098
H     10.35389     13.33282     15.10445        -0.057873     -0.439495     -0.208494
H      7.64558      5.87395     10.35389         1.083419     -0.230833     -0.332449
H      7.64558     15.10445     10.62451         0.734683     -0.190330      0.040818
H     13.33282      5.87395     10.62451        -0.798145      0.090598      0.490160
H     13.33282     15.10445     10.35389        -0.316570     -0.086591     -0.039771
H     12.45634     12.45634     19.01126         0.268030      0.240659     -0.243026
H     19.01126     19.01126     19.01126        -0.266045     -0.265556     -0.223333
H     19.01126     12.45634     12.45634        -0.269765      0.254849      0.236187
H     12.45634     19.01126     12.45634         0.257807     -0.275924      0.230735
C     10.35284      5.61067      6.59456        -0.146303     -0.882369     -0.754098
C     10.62556     15.36773      6.59456         0.214926      0.331814     -0.387195
C     10.62556      5.61067     14.38384        -0.264946     -0.683083      0.588918
C     10.35284     15.36773     14.38384        -0.000610      0.238754      0.557622
C      6.59456     10.35284      5.61067        -0.823610      0.075412     -0.491486
C      6.59456     10.62556     15.36773        -0.796891      0.212704      0.819102
C     14.38384     10.62556      5.61067         0.891781      0.033055     -0.865339
C     14.38384     10.35284     15.36773         1.058184     -0.010136      0.726481
C      5.61067      6.59456     10.35284        -0.684747     -0.700259     -0.400732
C     15.36773      6.59456     10.62556         0.730217      0.142759     -0.166224
C      5.61067     14.38384     10.62556        -0.321113      0.918496     -0.066527
C     15.36773     14.38384     10.35284         0.449053      1.325523     -0.277821
C      5.61067     10.35284      6.59456        -0.336569     -0.006070     -0.806849
C     15.36773     10.62556      6.59456         0.292212     -0.306607     -0.903151
C      5.61067     10.62556     14.38384        -0.411239     -0.086141      1.198631
C     15.36773     10.35284     14.38384         0.111297      0.002797      1.374882
C     10.35284      6.59456      5.61067        -0.084061     -1.212234     -0.379172
C     10.62556      6.59456     15.36773        -0.112407     -0.856785      0.661322
C     10.62556     14.38384      5.61067         0.028091      1.008868     -0.643109
C     10.35284     14.38384     15.36773        -0.021381      0.493693      0.298738
C      6.59456      5.61067     10.35284        -0.680794     -1.199264      0.209627
C      6.59456     15.36773     10.62556        -0.798659      0.240415      0.048297
C     14.38384      5.61067     10.62556         0.047227     -0.547985     -0.288598
C     14.38384     15.36773     10.35284         0.079460      0.575736     -0.033403
C     10.40319      3.19606      7.29314        -0.000342      0.397360     -0.966779
C     10.35913      4.25547      6.23373        -0.009252     -0.484133      0.112241
C      0.08601      7.29314      7.29314        -0.045881     -0.907594     -0.266581
C      0.13007      6.23373      6.23373         0.026532      0.376303      0.567413
C      0.08601      3.19606      3.19606         0.016930      1.041220      0.269360
C      0.13007      4.25547      4.25547         0.016560     -0.494104     -0.354795
C     10.40319      7.29314      3.19606        -0.013517     -0.568437      0.204294
C     10.35913      6.23373      4.25547        -0.009428      0.184034     -0.643348
C      7.29314     10.40319      3.19606        -0.343348      0.012688      0.203850
C      6.23373     10.35913      4.25547         0.207875      0.003570     -0.255391
C      7.29314      0.08601      7.29314        -0.994791     -0.080910     -0.371773
C      6.23373      0.13007      6.23373         0.627300     -0.199307      0.328565
C      3.19606      0.08601      3.19606         1.062622     -0.035940      0.284243
C      4.25547      0.13007      4.25547        -0.577754     -0.142397     -0.314932
C      3.19606     10.40319      7.29314         0.468320      0.019293     -0.237597
C      4.25547     10.35913      6.23373        -0.237683      0.008137      0.138653
C      3.19606      7.29314     10.40319         0.264518     -0.462746      0.049537
C      4.25547      6.23373     10.35913        -0.921260     -0.070974      0.108825
C      7.29314      7.29314      0.08601        -0.458866     -0.394908     -0.022303
C      6.23373      6.23373      0.13007         0.561811      0.249147      0.073847
C      3.19606      3.19606      0.08601         0.726467      0.461173     -0.013665
C      4.25547      4.25547      0.13007        -0.127848     -0.899406     -0.047792
C      7.29314      3.19606     10.40319        -0.354490      0.407505      0.042062
C      6.23373      4.25547     10.35913         0.439883     -0.653471      0.145333
O     10.43466      3.58206      8.50569         0.081806      0.257010      0.816476
O     10.54374     17.39634      8.50569         0.053127     -0.064566      0.332469
O     10.54374      3.58206     12.47271         0.009866     -0.009420     -0.302910
O     10.43466     17.39634     12.47271        -0.032964     -0.105777     -0.373106
O      8.50569     10.43466      3.58206         0.532009     -0.035799      0.164192
O      8.50569     10.54374     17.39634         0.833107     -0.077572     -0.211974
O     12.47271     10.54374      3.58206        -0.845119      0.154184      0.175531
O     12.47271     10.43466     17.39634        -0.566258      0.019657     -0.200571
O      3.58206      8.50569     10.43466         0.188968      0.592817     -0.048596
O     17.39634      8.50569     10.54374        -0.148215      0.583730      0.033341
O      3.58206     12.47271     10.54374         0.108391     -0.535262      0.039380
O     17.39634     12.47271     10.43466        -0.174254     -0.527153     -0.051798
O      3.58206     10.43466      8.50569         0.117715     -0.030225      0.362639
O     17.39634     10.54374      8.50569         0.008079      0.104001      0.350667
O      3.58206     10.54374     12.47271         0.018268      0.043351     -0.294207
O     17.39634     10.43466     12.47271        -0.136953     -0.028693     -0.376783
O     10.43466      8.50569      3.58206        -0.039396      0.640529      0.193978
O     10.54374      8.50569     17.39634        -0.071919      0.781136     -0.171866
O     10.54374     12.47271      3.58206         0.160252     -0.866407      0.206068
O     10.43466     12.47271     17.39634        -0.023035     -0.343759      0.000214
O      8.50569      3.58206     10.43466         0.552149      0.145055     -0.052560
O      8.50569     17.39634     10.54374         0.582889     -0.183054      0.011365
O     12.47271      3.58206     10.54374        -0.734126      0.115232      0.021934
O     12.47271     17.39634     10.43466        -0.511658     -0.138969     -0.035389
O     11.90042     11.90042     19.56718        -0.311806     -0.255155      0.255884
O     19.56718     19.56718     19.56718         0.303892      0.323804      0.226335
O     19.56718     11.90042     11.90042         0.343203     -0.275034     -0.252701
O     11.90042     19.56718     11.90042        -0.289272      0.353476     -0.232103
O      9.45224      1.03696      9.45224        -0.021267      0.108120     -0.116102
O      1.03696      9.45224      9.45224         0.063589     -0.008612     -0.113845
O      1.03696      1.03696      1.03696         0.052378      0.099688      0.098898
O      9.45224      9.45224      1.03696        -0.030851     -0.014167      0.101445
Zr     10.48920      2.52580     10.48920        -0.131437     -0.291245      0.190820
Zr     10.48920     18.45260     10.48920         0.027943      0.049595      0.070703
Zr     10.48920     10.48920      2.52580        -0.249277     -0.219390     -0.377774
Zr     10.48920     10.48920     18.45260         0.103470      0.009394      0.325527
Zr      2.52580     10.48920     10.48920        -0.124581     -0.108775     -0.033199
Zr     18.45260     10.48920     10.48920         0.082196     -0.070689      0.088728
Pd     12.51174      8.24471      9.90020        -0.113678      0.169286     -0.040384
Pd      7.13122      9.53182     10.51416        -0.117980      0.021992      0.011145
Pd      6.85773     11.70487     11.94056         0.015564      0.095719      0.049070
Pd     12.21091     13.64120      7.49907         0.005153     -0.012490     -0.145552
Pd     11.85185      7.88129      7.31051         0.191035      0.062413     -0.044914
Pd      8.66678      7.48492      7.04963         0.049590      0.000452      0.040851
Pd     11.68074     11.63919      5.77234        -0.008069     -0.059744      0.033047
Pd     14.26131      8.89346      7.77698         0.044404      0.064069      0.002139
Pd      9.85940     11.93991      7.81786        -0.027669     -0.039429      0.066395
Pd      7.11558      7.05420     12.03316        -0.024257     -0.024180     -0.076716
Pd      6.56918      7.82740      8.54809         0.031800     -0.070013     -0.031283
Pd      7.24247      9.19642     13.46422         0.005035     -0.031628     -0.007249
Pd     11.36163      5.92060      9.25286        -0.044141     -0.008802      0.035227
Pd     10.08226      9.69104      6.32477         0.023831      0.047387      0.003652
Pd      9.02990     13.94688      9.34619        -0.046186      0.021278     -0.029859
Pd     10.99483      6.85274     11.64753        -0.076151      0.049776     -0.001452
Pd     10.20320      9.23327      9.06089         0.301205      0.059536      0.080491
Pd      9.19568     11.40960     10.40266         0.082352     -0.046387      0.062891
Pd      8.97989      7.13205      9.79447        -0.095702     -0.092770     -0.159773
Pd      8.81696      7.11019     14.01324         0.173318      0.017850     -0.076952
Pd      9.30591      8.87553     11.76782         0.027162      0.127343      0.061981
Pd     12.28653     10.73012      8.24142        -0.037718     -0.160806     -0.029561
Pd      6.91973     12.10161      9.24606         0.000314      0.012833      0.022694
Pd      8.02696     10.02515      8.03725        -0.095509     -0.080292      0.008775
Pd     13.93095      6.39381      8.52172        -0.006399      0.050636      0.055240
Pd     13.48599      7.67144     12.29105        -0.028016      0.049839     -0.045071
Pd      9.18662     11.18963     13.11451         0.135501      0.021031      0.054880
Pd     14.20181     12.50674      8.74132        -0.114224     -0.018915      0.000315
Pd     13.38369     10.33333     12.75406         0.123353      0.109746      0.188071
Pd     14.23871     10.19594     10.17304        -0.076164     -0.078452     -0.008419
Pd     11.51895     10.43535     11.12434        -0.326082     -0.057367     -0.340976
Pd     11.41450     12.95770      9.87564         0.053839     -0.073121      0.081012
Pd     13.59762     12.51303     11.36488        -0.018113      0.096605      0.082493
Pd     11.25299     12.76691     12.46538         0.068093     -0.078398     -0.095446
Pd     11.47742     11.22458     14.58663         0.026336      0.047988      0.007351
Pd     11.32903      8.81736     13.40974        -0.084001      0.007584      0.005943
Pd      9.46295      9.52569     15.16557         0.045819      0.078498      0.043883
Pd      8.79738     13.59961     12.00538         0.062306     -0.001743     -0.093584
