152
# total energy = -1110.02826920 eVH     10.35389      5.87395      7.64558        -0.378086     -0.435273      1.187100
H     10.62451     15.10445      7.64558         0.404038      0.077523      0.937294
H     10.62451      5.87395     13.33282        -0.160270     -1.133023     -1.657955
H     10.35389     15.10445     13.33282        -0.609572      0.418055     -0.484329
H      7.64558     10.35389      5.87395         0.481879     -0.553678     -0.007508
H      7.64558     10.62451     15.10445         0.330006     -0.277652      0.056818
H     13.33282     10.62451      5.87395        -0.381272      0.374036      0.011848
H     13.33282     10.35389     15.10445        -0.465126      0.298855      0.109016
H      5.87395      7.64558     10.35389         0.069438      0.383826      0.032907
H     15.10445      7.64558     10.62451         0.355438      0.378461      0.164532
H      5.87395     13.33282     10.62451        -0.282021     -0.418187      0.404978
H     15.10445     13.33282     10.35389         0.047886     -0.369441     -0.417289
H      5.87395     10.35389      7.64558        -0.099759     -0.282448      1.562365
H     15.10445     10.62451      7.64558         0.132364      0.114753      0.984959
H      5.87395     10.62451     13.33282        -0.094796     -0.308187     -1.111165
H     15.10445     10.35389     13.33282         0.310984      0.535817     -1.208947
H     10.35389      7.64558      5.87395        -0.465608      0.548914     -0.314229
H     10.62451      7.64558     15.10445        -0.050752      0.735782      0.297544
H     10.62451     13.33282      5.87395         0.894549     -1.362586     -0.332271
H     10.35389     13.33282     15.10445         0.297552     -0.514905     -0.003414
H      7.64558      5.87395     10.35389         0.913686      0.116764     -0.133566
H      7.64558     15.10445     10.62451         2.061157      0.808919      0.262701
H     13.33282      5.87395     10.62451        -2.409136     -0.947868      0.021810
H     13.33282     15.10445     10.35389        -0.847180     -0.037813     -0.248981
H     12.45634     12.45634     19.01126         0.269825      0.257464     -0.231475
H     19.01126     19.01126     19.01126        -0.267720     -0.251401     -0.239227
H     19.01126     12.45634     12.45634        -0.278666      0.287612      0.187143
H     12.45634     19.01126     12.45634         0.257748     -0.251692      0.237539
C     10.35284      5.61067      6.59456         0.169335     -0.386223     -1.610479
C     10.62556     15.36773      6.59456         0.140545      0.644007     -0.849046
C     10.62556      5.61067     14.38384         0.055689     -0.267061      2.087747
C     10.35284     15.36773     14.38384         0.160655      0.212468      1.823091
C      6.59456     10.35284      5.61067        -1.176948     -0.176840     -0.955676
C      6.59456     10.62556     15.36773        -0.607582     -0.137393      0.661755
C     14.38384     10.62556      5.61067         0.698012     -0.133956     -0.768317
C     14.38384     10.35284     15.36773         1.113244      0.138144      0.904343
C      5.61067      6.59456     10.35284        -0.864199     -0.688749     -0.139633
C     15.36773      6.59456     10.62556         1.923204      0.013941     -0.043043
C      5.61067     14.38384     10.62556        -1.540986      0.167687     -0.000137
C     15.36773     14.38384     10.35284         0.469722      0.178388      0.020278
C      5.61067     10.35284      6.59456        -0.347018      0.275644     -1.691455
C     15.36773     10.62556      6.59456         0.299988      0.008477     -0.924614
C      5.61067     10.62556     14.38384        -0.370939      0.256135      1.489340
C     15.36773     10.35284     14.38384         0.151042     -0.334045      1.671967
C     10.35284      6.59456      5.61067        -0.254381     -1.265517     -0.979035
C     10.62556      6.59456     15.36773        -0.052923     -1.079447      1.185072
C     10.62556     14.38384      5.61067        -0.445108      2.061787     -0.722081
C     10.35284     14.38384     15.36773        -0.263952      1.593051      0.378748
C      6.59456      5.61067     10.35284        -1.023537     -0.333602      0.068679
C      6.59456     15.36773     10.62556        -1.524410      0.299994     -0.348430
C     14.38384      5.61067     10.62556         1.318503     -0.456802     -0.077449
C     14.38384     15.36773     10.35284         0.354389      0.249838      0.049989
C     10.40319      3.19606      7.29314         0.023562      0.297039     -0.122652
C     10.35913      4.25547      6.23373         0.115600     -0.417147      0.197850
C      0.08601      7.29314      7.29314        -0.053420     -0.354406     -0.438595
C      0.13007      6.23373      6.23373        -0.155852      0.841954      0.044954
C      0.08601      3.19606      3.19606        -0.119306      1.519886      0.168678
C      0.13007      4.25547      4.25547        -0.141671     -0.400843     -1.370232
C     10.40319      7.29314      3.19606         0.036200     -0.463564      0.094305
C     10.35913      6.23373      4.25547         0.228215      0.160368     -0.392288
C      7.29314     10.40319      3.19606        -1.708524      0.024398      0.245465
C      6.23373     10.35913      4.25547         0.519217      0.045156     -0.518671
C      7.29314      0.08601      7.29314        -0.373313      0.009987     -0.269162
C      6.23373      0.13007      6.23373         0.379178      0.011261      0.351969
C      3.19606      0.08601      3.19606         0.635393      0.008977      0.300315
C      4.25547      0.13007      4.25547        -0.413035      0.009164     -0.410704
C      3.19606     10.40319      7.29314         0.385534      0.047068     -0.391674
C      4.25547     10.35913      6.23373        -0.659855      0.084340      0.416948
C      3.19606      7.29314     10.40319         0.358147     -0.317177     -0.003810
C      4.25547      6.23373     10.35913         0.015732      0.663007      0.106525
C      7.29314      7.29314      0.08601        -0.684817     -0.456474     -0.025638
C      6.23373      6.23373      0.13007         0.310201      1.278577     -0.016521
C      3.19606      3.19606      0.08601         0.782510      0.429372     -0.005271
C      4.25547      4.25547      0.13007        -0.438945     -1.457595     -0.085875
C      7.29314      3.19606     10.40319        -0.353274      0.300060      0.004277
C      6.23373      4.25547     10.35913         0.581632     -0.165763      0.242053
O     10.43466      3.58206      8.50569        -0.044843      0.192135      0.285287
O     10.54374     17.39634      8.50569         0.043764     -0.216788      0.481753
O     10.54374      3.58206     12.47271         0.095353     -0.014222     -0.083658
O     10.43466     17.39634     12.47271        -0.037053     -0.102497     -0.235681
O      8.50569     10.43466      3.58206         0.910151      0.183347      0.396026
O      8.50569     10.54374     17.39634         0.551571      0.073340     -0.211282
O     12.47271     10.54374      3.58206        -0.507651     -0.017268      0.185716
O     12.47271     10.43466     17.39634        -0.524849     -0.069876     -0.190320
O      3.58206      8.50569     10.43466         0.166052      0.503617     -0.043896
O     17.39634      8.50569     10.54374        -0.188734      0.662676      0.044977
O      3.58206     12.47271     10.54374         0.150952     -0.615433      0.026742
O     17.39634     12.47271     10.43466        -0.174318     -0.510656     -0.015697
O      3.58206     10.43466      8.50569         0.216944     -0.080281      0.435245
O     17.39634     10.54374      8.50569        -0.159628      0.031392      0.425885
O      3.58206     10.54374     12.47271         0.144601      0.001852     -0.379716
O     17.39634     10.43466     12.47271         0.074945     -0.064858     -0.066258
O     10.43466      8.50569      3.58206         0.001696      0.356938      0.185390
O     10.54374      8.50569     17.39634         0.073777      0.462411     -0.200444
O     10.54374     12.47271      3.58206        -0.223210     -0.905825      0.347104
O     10.43466     12.47271     17.39634        -0.078875     -0.433216     -0.236174
O      8.50569      3.58206     10.43466         0.508920      0.193146     -0.018265
O      8.50569     17.39634     10.54374         0.616201     -0.196289      0.035622
O     12.47271      3.58206     10.54374        -0.710364      0.279520      0.041833
O     12.47271     17.39634     10.43466        -0.476024     -0.185339     -0.039425
O     11.90042     11.90042     19.56718        -0.333204     -0.304629      0.263021
O     19.56718     19.56718     19.56718         0.331295      0.304959      0.286275
O     19.56718     11.90042     11.90042         0.278310     -0.293370     -0.134000
O     11.90042     19.56718     11.90042        -0.317684      0.296164     -0.237548
O      9.45224      1.03696      9.45224        -0.049404      0.071438     -0.039732
O      1.03696      9.45224      9.45224         0.039502     -0.068719     -0.068205
O      1.03696      1.03696      1.03696         0.039498      0.115504      0.126619
O      9.45224      9.45224      1.03696        -0.108340     -0.065625      0.139578
Zr     10.48920      2.52580     10.48920         0.090997     -0.151311     -0.161314
Zr     10.48920     18.45260     10.48920        -0.048547      0.167802     -0.032424
Zr     10.48920     10.48920      2.52580         0.404570     -0.277270     -0.243426
Zr     10.48920     10.48920     18.45260        -0.025663     -0.062663      0.193638
Zr      2.52580     10.48920     10.48920        -0.057766      0.124712     -0.034814
Zr     18.45260     10.48920     10.48920         0.112238     -0.108696     -0.296143
Ir     12.01943     12.42448     10.44486         0.050204     -0.007315     -0.048851
Ir     10.83121      7.35945     10.42228         0.096449      0.012061     -0.015193
Ir      8.48984      7.47223     11.66828         0.089427     -0.011123     -0.015217
Ir      7.38030     11.76898      7.68938         0.040065     -0.010294     -0.040210
Ir     11.49215     12.07522      7.14193         0.045948      0.026603      0.007475
Ir     13.42929      8.84770      7.57169         0.137800      0.075980     -0.012583
Ir     12.49053     13.89521      8.42894         0.023539     -0.003118     -0.006805
Ir      9.57574     11.31358      5.60159         0.017544     -0.004419      0.011682
Ir      9.05818     13.51394      7.08078         0.005801      0.012270      0.007686
Ir      9.11270      9.69863      7.59918         0.059806     -0.017070     -0.014533
Ir     13.01012      7.08758     11.91823         0.044298     -0.062268      0.013330
Ir     13.18173      6.92772      9.13694         0.125829      0.016909     -0.037088
Ir     10.74292      7.58962     12.93801         0.077388      0.005692     -0.022773
Ir     13.52719     11.43996      8.70413         0.022459      0.031960      0.036458
Ir     11.31444      9.67177      6.26385         0.072413     -0.013761     -0.013493
Ir      6.88870      9.37142      9.04255         0.060837     -0.030901     -0.028913
Ir     14.09469     11.35863     11.49486        -0.042068     -0.012432      0.087857
Ir     11.45479      9.89314      8.94613         0.059525     -0.001811     -0.015827
Ir      9.19523      9.58087     10.28600         0.066464      0.010234     -0.010135
Ir     13.63894      9.27143     10.16122         0.057002      0.027706     -0.009706
Ir     13.63283      9.22364     12.85307         0.044040     -0.078758      0.055069
Ir     11.45740      9.68274     11.59015         0.054995      0.021928     -0.019416
Ir      9.79639     11.82752      9.01654         0.028455     -0.031815     -0.022305
Ir      8.67556      7.49678      8.92232         0.069492     -0.010779     -0.003078
Ir     11.09139      7.63479      7.91090         0.026305     -0.018590     -0.036374
Ir      9.05179      9.56846     13.04210         0.060082      0.019118     -0.011600
Ir      7.56034     14.04072      9.00354         0.005945     -0.024885     -0.017670
Ir     10.95863     14.03615     12.01318         0.005087      0.092508     -0.011371
Ir     10.14901     14.22498      9.57111        -0.000321     -0.002055     -0.033823
Ir      9.73691     11.71966     11.72918         0.004368     -0.013650     -0.008334
Ir      7.49599     11.73876     10.26624         0.033955     -0.017403     -0.040296
Ir      8.42433     13.86315     11.64890        -0.001924     -0.009813     -0.023357
Ir      7.49372     11.79584     12.92192         0.018194     -0.037982     -0.043290
Ir      9.78652     11.67425     14.32296        -0.019100      0.001017      0.002622
Ir     13.52243     13.78942     12.14845         0.022435     -0.009084      0.005809
Ir     12.05696     11.91251     13.04031        -0.030151      0.060203      0.016013
Ir     11.44825      9.75940     14.23981         0.037621      0.033226     -0.009674
Ir      6.91879      9.60273     11.58690         0.056574     -0.024410     -0.026439
