152
# total energy = -1024.44048815 eVH     10.35389      5.87395      7.64558         0.471615      0.028215      0.733517
H     10.62451     15.10445      7.64558         0.064774     -0.201797      0.630080
H     10.62451      5.87395     13.33282         0.096744      0.152815     -0.576098
H     10.35389     15.10445     13.33282        -0.496735     -0.026852     -0.752690
H      7.64558     10.35389      5.87395         0.347328      0.028196      0.160522
H      7.64558     10.62451     15.10445         0.940002     -0.243971      0.052150
H     13.33282     10.62451      5.87395        -0.803586     -0.144795      0.151001
H     13.33282     10.35389     15.10445        -0.901620     -0.436996      0.209558
H      5.87395      7.64558     10.35389         0.161189      0.725021     -0.323862
H     15.10445      7.64558     10.62451        -0.140784      0.380968     -0.016603
H      5.87395     13.33282     10.62451         0.156801     -0.512863     -0.102647
H     15.10445     13.33282     10.35389        -0.092800     -1.187488      0.102541
H      5.87395     10.35389      7.64558         0.137385      0.180732      0.517422
H     15.10445     10.62451      7.64558         0.006492      0.102822      1.028066
H      5.87395     10.62451     13.33282         0.072043     -0.040372     -0.462934
H     15.10445     10.35389     13.33282        -0.183095     -0.150691     -0.431397
H     10.35389      7.64558      5.87395         0.089818      1.016692      0.228565
H     10.62451      7.64558     15.10445         0.000517      0.269775     -0.159206
H     10.62451     13.33282      5.87395        -0.086177     -0.382737      0.319989
H     10.35389     13.33282     15.10445        -0.444279     -0.577449      0.003938
H      7.64558      5.87395     10.35389         0.534891      0.087679     -0.116271
H      7.64558     15.10445     10.62451         0.946682     -0.210843     -0.199076
H     13.33282      5.87395     10.62451        -0.591356      0.090064     -0.066820
H     13.33282     15.10445     10.35389        -0.582960     -0.063320      0.245196
H     12.45634     12.45634     19.01126         0.236979      0.277171     -0.237475
H     19.01126     19.01126     19.01126        -0.248785     -0.249167     -0.242360
H     19.01126     12.45634     12.45634        -0.267192      0.264848      0.219572
H     12.45634     19.01126     12.45634         0.237197     -0.267142      0.240153
C     10.35284      5.61067      6.59456        -0.226235     -0.681955      0.100809
C     10.62556     15.36773      6.59456        -0.050127      0.376207     -0.856017
C     10.62556      5.61067     14.38384        -0.004915     -0.054191      0.705171
C     10.35284     15.36773     14.38384         0.199288      0.698780      0.164364
C      6.59456     10.35284      5.61067        -0.352911     -0.015248     -0.309735
C      6.59456     10.62556     15.36773        -1.098624      0.257201      0.280599
C     14.38384     10.62556      5.61067         0.431018      0.381987     -0.683820
C     14.38384     10.35284     15.36773         1.081811      0.036825      0.229734
C      5.61067      6.59456     10.35284        -0.429630     -0.368296      0.360761
C     15.36773      6.59456     10.62556         0.187766     -0.492487      0.011671
C      5.61067     14.38384     10.62556        -0.203069      0.563921     -0.004289
C     15.36773     14.38384     10.35284         0.325884      0.036774     -0.119045
C      5.61067     10.35284      6.59456        -0.333077     -0.091938     -1.001171
C     15.36773     10.62556      6.59456         0.909109     -0.346805     -0.946954
C      5.61067     10.62556     14.38384        -0.426516      0.028722      0.298052
C     15.36773     10.35284     14.38384         0.651253     -0.098075      1.062780
C     10.35284      6.59456      5.61067        -0.245163     -0.578052     -0.940660
C     10.62556      6.59456     15.36773         0.060482     -0.260106      0.045176
C     10.62556     14.38384      5.61067         0.057774      1.206861     -0.419330
C     10.35284     14.38384     15.36773         0.279142      0.167713      0.718896
C      6.59456      5.61067     10.35284        -0.181098     -0.731416      0.160744
C      6.59456     15.36773     10.62556        -1.241945      0.246014      0.176628
C     14.38384      5.61067     10.62556         1.075447     -0.298013      0.038507
C     14.38384     15.36773     10.35284        -0.467114      0.794770     -0.406276
C     10.40319      3.19606      7.29314        -0.034429      0.895535     -0.422411
C     10.35913      4.25547      6.23373         0.056002     -0.515378      0.547214
C      0.08601      7.29314      7.29314        -0.021514     -0.402237     -0.348267
C      0.13007      6.23373      6.23373        -0.023625      0.015874      0.098895
C      0.08601      3.19606      3.19606         0.011424      1.277004      0.192582
C      0.13007      4.25547      4.25547        -0.046591     -0.223085     -0.197062
C     10.40319      7.29314      3.19606        -0.013938     -1.055787      0.373686
C     10.35913      6.23373      4.25547         0.039930      0.480271     -0.676536
C      7.29314     10.40319      3.19606        -0.312823      0.030321      0.731492
C      6.23373     10.35913      4.25547         0.144695      0.065825     -0.104963
C      7.29314      0.08601      7.29314        -0.660631     -0.018186     -0.272488
C      6.23373      0.13007      6.23373         0.381090     -0.077299      0.552337
C      3.19606      0.08601      3.19606         1.013485     -0.004052      0.259870
C      4.25547      0.13007      4.25547        -0.169020     -0.034508     -0.536345
C      3.19606     10.40319      7.29314         0.362563     -0.008826     -0.931219
C      4.25547     10.35913      6.23373        -0.280046      0.089421      0.236427
C      3.19606      7.29314     10.40319         0.522113     -1.349239     -0.037103
C      4.25547      6.23373     10.35913        -0.554321      0.734284      0.111586
C      7.29314      7.29314      0.08601        -0.390299     -0.234304      0.002005
C      6.23373      6.23373      0.13007         0.156453      0.148727     -0.002793
C      3.19606      3.19606      0.08601         0.263381      0.245488     -0.017240
C      4.25547      4.25547      0.13007        -0.123521     -0.054373      0.005686
C      7.29314      3.19606     10.40319        -0.396123      0.630069      0.007748
C      6.23373      4.25547     10.35913         1.078186     -0.132169      0.056251
O     10.43466      3.58206      8.50569        -0.024220      0.040179      0.443867
O     10.54374     17.39634      8.50569        -0.006484     -0.113610      0.464524
O     10.54374      3.58206     12.47271         0.039886     -0.108289     -0.127403
O     10.43466     17.39634     12.47271        -0.058830     -0.044304     -0.477072
O      8.50569     10.43466      3.58206         0.286894     -0.029941     -0.039638
O      8.50569     10.54374     17.39634         0.720417      0.027361     -0.204326
O     12.47271     10.54374      3.58206        -0.791241     -0.036874      0.148154
O     12.47271     10.43466     17.39634        -0.289485     -0.029382      0.030240
O      3.58206      8.50569     10.43466         0.161142      1.110812     -0.032354
O     17.39634      8.50569     10.54374        -0.099641      0.438054      0.058867
O      3.58206     12.47271     10.54374         0.068091     -0.398231      0.035734
O     17.39634     12.47271     10.43466        -0.158535     -0.676601     -0.009542
O      3.58206     10.43466      8.50569         0.069110     -0.067910      0.797373
O     17.39634     10.54374      8.50569        -0.061982      0.044926      0.334137
O      3.58206     10.54374     12.47271        -0.012479      0.036838     -0.243068
O     17.39634     10.43466     12.47271        -0.257161     -0.001418     -0.721120
O     10.43466      8.50569      3.58206         0.118745      0.835382      0.190677
O     10.54374      8.50569     17.39634         0.032187      0.603673     -0.144250
O     10.54374     12.47271      3.58206         0.007984     -1.011477      0.175129
O     10.43466     12.47271     17.39634        -0.042004     -0.939795     -0.210833
O      8.50569      3.58206     10.43466         0.564527      0.128224     -0.015571
O      8.50569     17.39634     10.54374         0.505848     -0.194240     -0.009803
O     12.47271      3.58206     10.54374        -0.477996      0.161722      0.059242
O     12.47271     17.39634     10.43466        -0.408305      0.030923     -0.007320
O     11.90042     11.90042     19.56718        -0.268592     -0.326303      0.257907
O     19.56718     19.56718     19.56718         0.278289      0.292699      0.283752
O     19.56718     11.90042     11.90042         0.301727     -0.300565     -0.202422
O     11.90042     19.56718     11.90042        -0.264547      0.285487     -0.249123
O      9.45224      1.03696      9.45224        -0.079918      0.048085     -0.058959
O      1.03696      9.45224      9.45224         0.043137     -0.152276     -0.113877
O      1.03696      1.03696      1.03696         0.025654      0.119245      0.196025
O      9.45224      9.45224      1.03696        -0.068611     -0.086855      0.117996
Zr     10.48920      2.52580     10.48920        -0.052456     -0.123796     -0.171241
Zr     10.48920     18.45260     10.48920         0.008899      0.214051     -0.024516
Zr     10.48920     10.48920      2.52580        -0.169135     -0.195925     -0.513015
Zr     10.48920     10.48920     18.45260         0.004100     -0.016069      0.433945
Zr      2.52580     10.48920     10.48920        -0.367621      0.303061      0.172301
Zr     18.45260     10.48920     10.48920         0.203291      0.064297     -0.204982
Pd      8.29494      9.67209     13.25231         0.012269     -0.008367      0.013505
Pd     10.48307      9.43860     10.19150         0.042794      0.011779     -0.019111
Pd     12.99326      8.78437     12.46925         0.021279     -0.000843      0.008808
Pd     10.29816     10.80953     15.05823         0.001750      0.004014      0.009177
Pd     12.79437     11.36667     13.58728        -0.020287     -0.009095      0.015552
Pd     14.85345     10.58449     11.36313        -0.008975     -0.008254     -0.005119
Pd      6.89416      7.47637     12.29628        -0.006252     -0.006307      0.009692
Pd      9.20360      7.19387      9.45062        -0.003674     -0.033713     -0.016056
Pd      9.58603      7.54209     12.20304         0.005981     -0.021196      0.034087
Pd     11.75432      7.07625     10.79624         0.000376     -0.007061      0.001398
Pd     11.62254      7.82148      8.25832         0.001694      0.018174     -0.004488
Pd      7.17416     11.67575     11.51757         0.004819     -0.020041     -0.003608
Pd      9.28440     14.31394      9.24942         0.004672     -0.011198     -0.006463
Pd      8.12653     12.29419     14.00591        -0.001549      0.021229      0.016309
Pd     14.23843     14.17248      8.35009        -0.002944     -0.001605      0.019111
Pd     11.74272     13.28537      8.79466        -0.029475     -0.009874      0.006276
Pd     14.11059     11.59817      9.01685         0.013968      0.006760     -0.011629
Pd      8.70108     13.98969     11.99694        -0.010293     -0.023301      0.002979
Pd     12.22390     14.00818     13.93994        -0.004083      0.004181     -0.013150
Pd     11.40792     14.13926     11.28995         0.000657      0.000635     -0.003723
Pd     14.00314     13.27720     12.09621         0.005603     -0.016285     -0.004895
Pd     12.27111     11.50249     10.91433        -0.018214     -0.021434     -0.001657
Pd     13.02693     12.58866      6.59913        -0.018001      0.008837     -0.004999
Pd     13.96369      8.83388      7.57804        -0.018964      0.004684      0.006295
Pd      6.96125      8.45463      8.36921         0.017236     -0.010476      0.025942
Pd      5.55614     10.01724     10.06391         0.008677      0.001148      0.002612
Pd      9.39602      9.45150      7.43856        -0.017219      0.004833      0.015988
Pd      8.46947      6.96991      6.84816         0.010029     -0.012409      0.024759
Pd      9.67336     11.94735     10.51716        -0.007069      0.001745     -0.002596
Pd     11.79371     10.60702      8.05829         0.003931     -0.021063      0.028881
Pd     11.79399      8.92794      5.85195        -0.000973      0.008708      0.003538
Pd     10.62893     11.33866      5.73695        -0.003705     -0.016284     -0.026848
Ir     10.74269      9.84854     12.69426        -0.028653      0.039650      0.032016
Ir     13.14185      9.23963      9.94998        -0.017163     -0.011241     -0.003736
Ir     10.48204     12.30487     12.89471        -0.007708     -0.018214     -0.035699
Ir      7.76786     10.95833      9.05955         0.007912      0.001645     -0.008310
Ir      9.57774     12.05305      7.95528        -0.030319      0.001780      0.056598
Ir      8.00681      9.16360     10.73235        -0.050891      0.026218     -0.031652
