152
# total energy = -1005.98205467 eVH     10.35389      5.87395      7.64558         0.259056      0.036994      0.640287
H     10.62451     15.10445      7.64558        -0.109418     -0.142293      0.527174
H     10.62451      5.87395     13.33282         0.487237      0.120197     -0.584822
H     10.35389     15.10445     13.33282         0.071426     -0.184771     -0.546194
H      7.64558     10.35389      5.87395         0.370381      0.048854      0.172036
H      7.64558     10.62451     15.10445         0.690425      0.471092     -0.042279
H     13.33282     10.62451      5.87395        -0.532963      0.418980      0.075163
H     13.33282     10.35389     15.10445        -0.799556     -0.095396      0.004643
H      5.87395      7.64558     10.35389         0.248685      0.771381     -0.308132
H     15.10445      7.64558     10.62451        -0.094534      0.484987      0.285136
H      5.87395     13.33282     10.62451         0.157527     -0.698718     -0.161472
H     15.10445     13.33282     10.35389        -0.004222     -1.044847     -0.331183
H      5.87395     10.35389      7.64558         0.254148      0.169245      0.625426
H     15.10445     10.62451      7.64558        -0.110989      0.407479      0.767021
H      5.87395     10.62451     13.33282         0.140930      0.334826     -0.697149
H     15.10445     10.35389     13.33282        -0.040958     -0.076212     -0.701743
H     10.35389      7.64558      5.87395         0.372220      1.044836     -0.010658
H     10.62451      7.64558     15.10445         0.536984      0.536300     -0.118208
H     10.62451     13.33282      5.87395        -0.396200     -0.837205      0.187695
H     10.35389     13.33282     15.10445        -0.043167     -0.433454     -0.217182
H      7.64558      5.87395     10.35389         0.856285      0.088706     -0.291159
H      7.64558     15.10445     10.62451         0.829250     -0.200459      0.001511
H     13.33282      5.87395     10.62451        -0.796801      0.190156      0.591357
H     13.33282     15.10445     10.35389        -0.445005     -0.107606     -0.136384
H     12.45634     12.45634     19.01126         0.235553      0.270955     -0.239568
H     19.01126     19.01126     19.01126        -0.262048     -0.240735     -0.261430
H     19.01126     12.45634     12.45634        -0.266649      0.268431      0.219559
H     12.45634     19.01126     12.45634         0.232613     -0.256613      0.276728
C     10.35284      5.61067      6.59456        -0.430719     -0.692106      0.157110
C     10.62556     15.36773      6.59456         0.065678      0.363284     -0.307748
C     10.62556      5.61067     14.38384        -0.329098     -0.374510     -0.296346
C     10.35284     15.36773     14.38384        -0.006677      0.343125      0.535040
C      6.59456     10.35284      5.61067        -0.277542     -0.006088     -0.337665
C      6.59456     10.62556     15.36773        -0.252901     -0.216534      0.799304
C     14.38384     10.62556      5.61067        -0.244100     -0.395929     -0.524390
C     14.38384     10.35284     15.36773         0.972327     -0.063184      0.256122
C      5.61067      6.59456     10.35284        -0.536788     -0.003622      0.065906
C     15.36773      6.59456     10.62556         0.534190      0.016643     -0.249329
C      5.61067     14.38384     10.62556        -0.325084      0.977920      0.080137
C     15.36773     14.38384     10.35284         0.305340      1.047025      0.049942
C      5.61067     10.35284      6.59456        -0.189627     -0.225597     -0.609605
C     15.36773     10.62556      6.59456         0.446174     -0.277958      0.114337
C      5.61067     10.62556     14.38384        -0.701993     -0.343856     -0.079167
C     15.36773     10.35284     14.38384         0.382238     -0.063983      1.024586
C     10.35284      6.59456      5.61067        -0.216865     -0.269865     -0.657911
C     10.62556      6.59456     15.36773        -0.266068      0.131924      0.451763
C     10.62556     14.38384      5.61067         0.195200      1.063288     -0.348080
C     10.35284     14.38384     15.36773         0.017485      0.544187      0.444845
C      6.59456      5.61067     10.35284        -0.153139     -0.724785      0.248307
C      6.59456     15.36773     10.62556        -1.006103      0.287476      0.080048
C     14.38384      5.61067     10.62556         0.497246     -0.554652     -0.366075
C     14.38384     15.36773     10.35284         0.218167      0.462029     -0.100486
C     10.40319      3.19606      7.29314         0.013093      0.679966     -0.478466
C     10.35913      4.25547      6.23373         0.087156     -0.724316     -0.023402
C      0.08601      7.29314      7.29314        -0.044233     -0.407143     -0.312431
C      0.13007      6.23373      6.23373        -0.022753      0.086101      0.573433
C      0.08601      3.19606      3.19606        -0.013196      1.267694      0.283631
C      0.13007      4.25547      4.25547         0.050345     -0.779068     -0.155222
C     10.40319      7.29314      3.19606         0.011645     -0.326926      0.331863
C     10.35913      6.23373      4.25547         0.026213      0.005858     -0.846705
C      7.29314     10.40319      3.19606        -0.324089      0.022357      0.564355
C      6.23373     10.35913      4.25547         0.202382      0.064533     -0.091179
C      7.29314      0.08601      7.29314        -0.517178     -0.065109     -0.376532
C      6.23373      0.13007      6.23373         0.678673     -0.053713      0.479024
C      3.19606      0.08601      3.19606         0.715872     -0.034915      0.568048
C      4.25547      0.13007      4.25547        -0.580905     -0.086619     -0.544928
C      3.19606     10.40319      7.29314         0.481072     -0.014188     -0.771422
C      4.25547     10.35913      6.23373        -0.409720      0.051487      0.199088
C      3.19606      7.29314     10.40319         0.294432     -1.274231      0.044679
C      4.25547      6.23373     10.35913        -0.764926      0.108653      0.153138
C      7.29314      7.29314      0.08601        -0.407035     -0.374147     -0.027273
C      6.23373      6.23373      0.13007         0.467150      0.214626     -0.017633
C      3.19606      3.19606      0.08601         0.490510      0.375512     -0.040743
C      4.25547      4.25547      0.13007        -0.157187     -0.648106     -0.035055
C      7.29314      3.19606     10.40319        -0.325102      0.435816      0.076858
C      6.23373      4.25547     10.35913         0.282168     -0.684990      0.144663
O     10.43466      3.58206      8.50569        -0.017964      0.104919      0.501607
O     10.54374     17.39634      8.50569         0.036862     -0.175412      0.485693
O     10.54374      3.58206     12.47271         0.054808     -0.087945     -0.184951
O     10.43466     17.39634     12.47271        -0.038776     -0.183256     -0.547575
O      8.50569     10.43466      3.58206         0.309074     -0.003477      0.027077
O      8.50569     10.54374     17.39634         0.628270      0.034581     -0.144078
O     12.47271     10.54374      3.58206        -0.703477      0.084779      0.094540
O     12.47271     10.43466     17.39634        -0.437077      0.025086     -0.108942
O      3.58206      8.50569     10.43466         0.179310      1.040135     -0.041334
O     17.39634      8.50569     10.54374        -0.160401      0.540198      0.076303
O      3.58206     12.47271     10.54374         0.085458     -0.368705      0.049133
O     17.39634     12.47271     10.43466        -0.156625     -0.546700     -0.022724
O      3.58206     10.43466      8.50569         0.077807     -0.066612      0.592270
O     17.39634     10.54374      8.50569        -0.110690      0.066171      0.525067
O      3.58206     10.54374     12.47271         0.044038      0.048278     -0.521945
O     17.39634     10.43466     12.47271        -0.222487     -0.038478     -0.603698
O     10.43466      8.50569      3.58206        -0.040026      0.456146      0.136281
O     10.54374      8.50569     17.39634         0.050815      0.530789     -0.159549
O     10.54374     12.47271      3.58206         0.002902     -1.018260      0.204424
O     10.43466     12.47271     17.39634         0.042054     -0.726319     -0.175377
O      8.50569      3.58206     10.43466         0.509032      0.146140     -0.055418
O      8.50569     17.39634     10.54374         0.487156     -0.196495      0.014938
O     12.47271      3.58206     10.54374        -0.632880      0.230248      0.010708
O     12.47271     17.39634     10.43466        -0.221470      0.067539     -0.055449
O     11.90042     11.90042     19.56718        -0.239054     -0.290000      0.247109
O     19.56718     19.56718     19.56718         0.311131      0.295350      0.301264
O     19.56718     11.90042     11.90042         0.291544     -0.264545     -0.233128
O     11.90042     19.56718     11.90042        -0.241666      0.290806     -0.330790
O      9.45224      1.03696      9.45224        -0.018912      0.088052     -0.073119
O      1.03696      9.45224      9.45224         0.091857     -0.092122     -0.137409
O      1.03696      1.03696      1.03696         0.090390      0.189395      0.050191
O      9.45224      9.45224      1.03696        -0.108753     -0.103410      0.034103
Zr     10.48920      2.52580     10.48920        -0.127932     -0.287729     -0.037351
Zr     10.48920     18.45260     10.48920        -0.075226      0.214972      0.082364
Zr     10.48920     10.48920      2.52580         0.032807     -0.403528     -0.255951
Zr     10.48920     10.48920     18.45260        -0.279082     -0.092000      0.322568
Zr      2.52580     10.48920     10.48920        -0.379664      0.239778      0.292596
Zr     18.45260     10.48920     10.48920         0.236697     -0.004221     -0.224966
Pd     13.60716      8.97400      9.22447         0.001140      0.008616     -0.007047
Pd      5.62865      9.87528     10.13895         0.002324     -0.004809     -0.000714
Pd      6.77732     11.85700     11.71033        -0.001762     -0.005963     -0.001177
Pd     12.05777     13.00678      7.37363         0.004107      0.000281     -0.009924
Pd     11.87938      7.73767      7.46532        -0.000972      0.002407     -0.004562
Pd      8.31440      6.84846      6.57628        -0.002322     -0.003360     -0.019809
Pd     10.62625     11.17270      5.64765        -0.015053     -0.001625      0.001227
Pd     14.39632      8.55089      6.74460         0.001633     -0.001500     -0.006814
Pd      9.67466     11.72620      8.12733        -0.003512      0.003315      0.000641
Pd      6.75761      6.79588     12.32419        -0.009328     -0.000278      0.006465
Pd      6.54792      8.10064      8.02345         0.015835      0.048514     -0.040252
Pd      6.53312      8.49903     14.36026        -0.003923     -0.004069      0.008371
Pd     11.49601      6.52445      9.94699        -0.004327     -0.000758     -0.000596
Pd      9.50473      9.19925      7.15001        -0.012650      0.002069      0.005147
Pd      8.97950     13.98307      9.33065        -0.000845      0.008611      0.007232
Pd      9.46660      7.37190     11.72330        -0.010750     -0.000034     -0.007316
Pd     10.61922      8.98191      9.68552         0.006605     -0.007973      0.001380
Pd      9.33932     11.53887     10.71223         0.001441      0.010943      0.014035
Pd      8.89451      7.05631      9.14389        -0.011105      0.006169     -0.010785
Pd      8.55362      6.57923     14.24581        -0.000956     -0.001390     -0.004869
Pd      7.64836      9.33268     11.99162        -0.012252     -0.004307      0.013828
Pd     11.96764     10.37919      7.72527        -0.008886     -0.004526     -0.001369
Pd      7.13076     12.01220      9.06457        -0.003930      0.004329      0.002682
Pd      8.12996      9.60983      9.39777         0.003102      0.007238      0.033180
Pd     14.01947      6.49229      8.51949        -0.001737      0.001816      0.001135
Pd     12.62281      8.39737     11.58205        -0.000597      0.006872     -0.003854
Pd      8.77033     11.57604     13.40577        -0.007101      0.001042      0.002148
Pd     13.88789     11.93628      8.96391        -0.001817     -0.008079      0.003245
Pd     12.95484     10.70112     13.06510        -0.010361      0.004026      0.001188
Pd     14.78793     10.44724     11.10335        -0.005368     -0.003273      0.008324
Pd     12.07462     10.90096     10.52909        -0.009097     -0.001406      0.009397
Pd     11.44039     13.35384      9.93835         0.004355     -0.007626     -0.001813
Pd     13.60244     12.92496     11.62846        -0.006448     -0.004593     -0.000954
Pd     11.12261     12.61318     12.54010        -0.000337      0.001467     -0.001672
Pd     10.95520     11.05984     14.81498        -0.003997      0.001542      0.001440
Pd     10.51709      9.73809     12.38213        -0.003211     -0.005883     -0.003753
Pd      9.08620      9.14267     14.41854        -0.002752     -0.002347      0.008860
Pd      8.82393     13.85321     12.02564        -0.006941      0.001913      0.008274
