152
# total energy = -1004.65397267 eVH     10.35389      5.87395      7.64558        -0.052777      0.077047      0.684599
H     10.62451     15.10445      7.64558        -0.087743     -0.180190      0.539980
H     10.62451      5.87395     13.33282         0.413732      0.018005     -0.860940
H     10.35389     15.10445     13.33282         0.044922     -0.165410     -0.489435
H      7.64558     10.35389      5.87395         0.357216      0.033224      0.160281
H      7.64558     10.62451     15.10445         0.937911      0.590481      0.013216
H     13.33282     10.62451      5.87395        -0.534673      0.256096      0.068715
H     13.33282     10.35389     15.10445        -0.878397     -0.248684      0.062263
H      5.87395      7.64558     10.35389         0.273204      1.607287      0.231186
H     15.10445      7.64558     10.62451        -0.101129      0.532738      0.245365
H      5.87395     13.33282     10.62451         0.194826     -0.585286     -0.015873
H     15.10445     13.33282     10.35389         0.066839     -1.162111     -0.385920
H      5.87395     10.35389      7.64558         0.164871      0.036802      0.475644
H     15.10445     10.62451      7.64558        -0.172241      0.676873      1.036901
H      5.87395     10.62451     13.33282        -0.006081      0.539003     -1.207517
H     15.10445     10.35389     13.33282         0.034003     -0.188514     -0.776257
H     10.35389      7.64558      5.87395         0.120736      1.413473      0.075829
H     10.62451      7.64558     15.10445         0.528666      0.744967     -0.113197
H     10.62451     13.33282      5.87395        -0.367153     -0.683992      0.320120
H     10.35389     13.33282     15.10445        -0.226199     -0.491114     -0.332853
H      7.64558      5.87395     10.35389         1.080041     -0.123189     -0.132729
H      7.64558     15.10445     10.62451         0.822501     -0.189821     -0.060464
H     13.33282      5.87395     10.62451        -0.576797      0.141827      0.581334
H     13.33282     15.10445     10.35389        -0.535854     -0.052392     -0.231040
H     12.45634     12.45634     19.01126         0.263693      0.263938     -0.228404
H     19.01126     19.01126     19.01126        -0.273719     -0.258811     -0.223723
H     19.01126     12.45634     12.45634        -0.277293      0.258225      0.223459
H     12.45634     19.01126     12.45634         0.238743     -0.273933      0.254769
C     10.35284      5.61067      6.59456        -0.210780     -0.821279     -0.200286
C     10.62556     15.36773      6.59456         0.027921      0.213344     -0.383945
C     10.62556      5.61067     14.38384        -0.042614     -0.397405      0.587249
C     10.35284     15.36773     14.38384         0.002623      0.285425      0.494447
C      6.59456     10.35284      5.61067        -0.430173      0.032559     -0.254204
C      6.59456     10.62556     15.36773        -0.899353      0.150346      0.682993
C     14.38384     10.62556      5.61067         0.455607     -0.167192     -0.827595
C     14.38384     10.35284     15.36773         0.996594     -0.101265      0.307257
C      5.61067      6.59456     10.35284        -0.829626     -0.651491     -0.353981
C     15.36773      6.59456     10.62556         0.670119     -0.076125     -0.277072
C      5.61067     14.38384     10.62556        -0.224688      0.660243      0.002139
C     15.36773     14.38384     10.35284         0.321699      1.111930      0.083560
C      5.61067     10.35284      6.59456        -0.266902      0.014826     -0.723394
C     15.36773     10.62556      6.59456         0.578339     -0.168189     -0.337231
C      5.61067     10.62556     14.38384        -0.576636     -0.020727      0.798883
C     15.36773     10.35284     14.38384         0.505406     -0.084214      1.049521
C     10.35284      6.59456      5.61067        -0.039064     -0.889072     -0.426751
C     10.62556      6.59456     15.36773         0.142346     -0.776597      0.508831
C     10.62556     14.38384      5.61067         0.082831      1.192447     -0.313725
C     10.35284     14.38384     15.36773        -0.030119      1.061273      0.521071
C      6.59456      5.61067     10.35284        -0.293425     -1.227160      0.169439
C      6.59456     15.36773     10.62556        -0.974927      0.169732      0.125813
C     14.38384      5.61067     10.62556        -0.107570     -0.454890     -0.348967
C     14.38384     15.36773     10.35284         0.244969      0.527104     -0.048931
C     10.40319      3.19606      7.29314         0.017119      0.983160     -0.488421
C     10.35913      4.25547      6.23373         0.066757     -0.603997      0.119581
C      0.08601      7.29314      7.29314        -0.030435     -0.936150     -0.186428
C      0.13007      6.23373      6.23373        -0.091350      0.269196      0.316081
C      0.08601      3.19606      3.19606         0.042974      1.325623      0.153751
C      0.13007      4.25547      4.25547        -0.036489     -0.380527     -0.321107
C     10.40319      7.29314      3.19606         0.000254     -0.471260      0.292015
C     10.35913      6.23373      4.25547        -0.002722      0.103743     -0.817048
C      7.29314     10.40319      3.19606        -0.274012      0.018525      0.554730
C      6.23373     10.35913      4.25547         0.197692      0.086474     -0.108750
C      7.29314      0.08601      7.29314        -1.041280     -0.098195     -0.345965
C      6.23373      0.13007      6.23373         0.749852     -0.220298      0.411211
C      3.19606      0.08601      3.19606         1.125970     -0.027084      0.512593
C      4.25547      0.13007      4.25547        -0.662185     -0.191968     -0.434037
C      3.19606     10.40319      7.29314         0.590988      0.016771     -0.451206
C      4.25547     10.35913      6.23373        -0.247001      0.109962      0.227136
C      3.19606      7.29314     10.40319         0.349662     -1.017949      0.032702
C      4.25547      6.23373     10.35913        -1.121642      0.115427      0.164737
C      7.29314      7.29314      0.08601        -0.470145     -0.506047     -0.013572
C      6.23373      6.23373      0.13007         0.482312      0.327759      0.028112
C      3.19606      3.19606      0.08601         0.499461      0.408919     -0.029175
C      4.25547      4.25547      0.13007        -0.063704     -0.684014     -0.090298
C      7.29314      3.19606     10.40319        -0.395482      0.506012      0.058932
C      6.23373      4.25547     10.35913         0.473177     -0.736987      0.209960
O     10.43466      3.58206      8.50569        -0.020258      0.040552      0.453074
O     10.54374     17.39634      8.50569         0.060534     -0.034219      0.254198
O     10.54374      3.58206     12.47271         0.004368     -0.093660     -0.105318
O     10.43466     17.39634     12.47271        -0.036814     -0.141472     -0.513489
O      8.50569     10.43466      3.58206         0.334206     -0.021254      0.032186
O      8.50569     10.54374     17.39634         0.865476     -0.059541     -0.168642
O     12.47271     10.54374      3.58206        -0.866013      0.105098      0.074971
O     12.47271     10.43466     17.39634        -0.581685      0.025920     -0.130080
O      3.58206      8.50569     10.43466         0.187940      0.973196     -0.016752
O     17.39634      8.50569     10.54374        -0.150819      0.673645      0.048816
O      3.58206     12.47271     10.54374         0.103779     -0.535388      0.048057
O     17.39634     12.47271     10.43466        -0.163999     -0.606114     -0.030213
O      3.58206     10.43466      8.50569         0.068789     -0.069389      0.487854
O     17.39634     10.54374      8.50569         0.018621      0.099333      0.402006
O      3.58206     10.54374     12.47271        -0.002284      0.032266     -0.429900
O     17.39634     10.43466     12.47271        -0.219699     -0.032829     -0.681887
O     10.43466      8.50569      3.58206        -0.040817      0.564292      0.156148
O     10.54374      8.50569     17.39634        -0.079175      0.760952     -0.219025
O     10.54374     12.47271      3.58206         0.074000     -0.957088      0.158549
O     10.43466     12.47271     17.39634         0.084514     -0.828411     -0.216563
O      8.50569      3.58206     10.43466         0.568411      0.141623     -0.051717
O      8.50569     17.39634     10.54374         0.548295     -0.149916     -0.000999
O     12.47271      3.58206     10.54374        -0.671984      0.153534      0.024023
O     12.47271     17.39634     10.43466        -0.380466     -0.013992     -0.040878
O     11.90042     11.90042     19.56718        -0.308180     -0.301594      0.231285
O     19.56718     19.56718     19.56718         0.314224      0.303659      0.217885
O     19.56718     11.90042     11.90042         0.325260     -0.268237     -0.231905
O     11.90042     19.56718     11.90042        -0.257967      0.333444     -0.289227
O      9.45224      1.03696      9.45224        -0.013917      0.073286     -0.140207
O      1.03696      9.45224      9.45224         0.065759     -0.047671     -0.155240
O      1.03696      1.03696      1.03696         0.081462      0.123295      0.066784
O      9.45224      9.45224      1.03696        -0.071862     -0.064507      0.048074
Zr     10.48920      2.52580     10.48920        -0.042783     -0.197703      0.007463
Zr     10.48920     18.45260     10.48920        -0.033024      0.099336      0.203339
Zr     10.48920     10.48920      2.52580        -0.203052     -0.440594     -0.288651
Zr     10.48920     10.48920     18.45260         0.028136      0.026978      0.464498
Zr      2.52580     10.48920     10.48920        -0.239887      0.164039      0.097082
Zr     18.45260     10.48920     10.48920         0.180416     -0.011966     -0.040726
Pd     13.18442      8.59689      9.64915         0.082698     -0.023681     -0.052080
Pd      6.00987      9.69851     10.14763        -0.029123      0.005857      0.007771
Pd      6.91884     11.59163     11.74106         0.035941     -0.025947      0.024440
Pd     12.25664     13.12001      7.42893         0.013422      0.034217      0.025219
Pd     12.12276      7.71934      6.98778        -0.002026      0.009839      0.016640
Pd      8.45491      7.20426      6.87661        -0.035455     -0.000047     -0.024284
Pd     11.21198     11.40444      5.60716         0.015099     -0.078902     -0.053251
Pd     14.54732      8.67832      7.27390         0.036114      0.047031     -0.031539
Pd      9.90546     11.73103      8.05398         0.034971      0.105565      0.065069
Pd      6.96581      7.00189     12.12516        -0.059391     -0.049250     -0.075019
Pd      6.35663      7.49185      8.41113        -0.020730     -0.000074     -0.034323
Pd      7.18112      9.09093     13.66210        -0.038598      0.041515      0.088706
Pd     11.49777      6.45285      9.23484         0.023550      0.048798      0.014190
Pd      9.93882      9.44179      6.71216         0.041981     -0.093999      0.034851
Pd      9.09628     13.96604      9.35793        -0.027240     -0.006014      0.038823
Pd     10.78367      7.47205     11.47315        -0.078466     -0.135562     -0.131820
Pd     10.53784      9.15201      9.37095        -0.141261     -0.133211     -0.003993
Pd      9.46936     11.49085     10.66875        -0.036751     -0.108676     -0.052311
Pd      8.90498      7.10360      9.52865         0.060952     -0.059202     -0.082004
Pd      9.15629      7.39621     13.47590        -0.034883     -0.038150      0.085945
Pd      8.44259      9.13341     11.30260         0.004892     -0.021860     -0.064727
Pd     12.31348     10.35003      7.79639        -0.086578      0.057007     -0.064005
Pd      7.29431     11.99806      9.14657         0.023676     -0.036324      0.003663
Pd      8.06419      9.56087      8.53422         0.085537      0.057116     -0.049592
Pd     14.06672      6.35753      8.46672        -0.023002     -0.037870      0.032323
Pd     13.06061      8.52531     12.28521         0.016303     -0.046764     -0.043443
Pd      8.90028     11.46212     13.41631         0.093194     -0.042941      0.041568
Pd     13.86791     11.97997      9.14876        -0.042612      0.013642     -0.065219
Pd     13.12242     11.12119     13.21148        -0.066555     -0.000272      0.035130
Pd     14.73115     10.35403     11.05778         0.040516      0.029688      0.079341
Pd     12.06847     10.77049     10.74680         0.035949      0.062930     -0.026309
Pd     11.52013     13.27468      9.94098        -0.057789      0.026330     -0.156426
Pd     13.61275     13.14763     11.65188         0.043131     -0.035301     -0.023756
Pd     11.10104     12.76243     12.48921         0.027036     -0.036851      0.082850
Pd     11.15069     11.54092     14.94131        -0.065418     -0.074702     -0.083443
Pd     10.78696      9.74103     12.81875        -0.126381      0.136040      0.111224
Pd      9.49064      9.46179     15.18131        -0.002538      0.102923      0.012129
Pd      8.67208     13.73970     12.00426         0.016134     -0.079060      0.046830
