152
# total energy = -1022.50894188 eVH     10.35389      5.87395      7.64558         0.430560     -0.037815      1.039143
H     10.62451     15.10445      7.64558         0.029365     -0.061736      0.633274
H     10.62451      5.87395     13.33282         0.133353      0.109833     -0.628216
H     10.35389     15.10445     13.33282        -0.261726     -0.067963     -0.554479
H      7.64558     10.35389      5.87395         0.378745     -0.058311      0.191477
H      7.64558     10.62451     15.10445         0.623808     -0.138807     -0.112612
H     13.33282     10.62451      5.87395        -1.020716     -0.479028     -0.002996
H     13.33282     10.35389     15.10445        -0.479183     -0.066514     -0.049492
H      5.87395      7.64558     10.35389         0.043416      1.246295     -0.085899
H     15.10445      7.64558     10.62451        -0.168404      0.395611     -0.076031
H      5.87395     13.33282     10.62451         0.144993     -0.386501     -0.066415
H     15.10445     13.33282     10.35389        -0.080178     -1.001113     -0.317664
H      5.87395     10.35389      7.64558         0.119270     -0.013453      0.409638
H     15.10445     10.62451      7.64558         0.107173     -0.102183      0.783050
H      5.87395     10.62451     13.33282         0.265722     -0.054504     -0.420109
H     15.10445     10.35389     13.33282        -0.176767      0.053033     -0.631945
H     10.35389      7.64558      5.87395         0.187436      0.917777      0.049158
H     10.62451      7.64558     15.10445         0.003405      0.707169     -0.109409
H     10.62451     13.33282      5.87395         0.319206     -0.516015      0.193794
H     10.35389     13.33282     15.10445        -0.183591     -0.926658     -0.119395
H      7.64558      5.87395     10.35389         0.486044      0.055307     -0.158176
H      7.64558     15.10445     10.62451         0.916111     -0.193751      0.240258
H     13.33282      5.87395     10.62451        -0.426114      0.193073     -0.068546
H     13.33282     15.10445     10.35389        -0.999576     -0.051144      0.264293
H     12.45634     12.45634     19.01126         0.272321      0.258474     -0.219137
H     19.01126     19.01126     19.01126        -0.249745     -0.235699     -0.261316
H     19.01126     12.45634     12.45634        -0.244027      0.273251      0.235085
H     12.45634     19.01126     12.45634         0.206499     -0.284934      0.257511
C     10.35284      5.61067      6.59456        -0.058266     -0.483756     -0.734634
C     10.62556     15.36773      6.59456         0.023525      0.333038     -0.905533
C     10.62556      5.61067     14.38384        -0.008897     -0.284492      0.743014
C     10.35284     15.36773     14.38384         0.222434      0.706809      0.073350
C      6.59456     10.35284      5.61067        -0.574774     -0.035746     -0.249607
C      6.59456     10.62556     15.36773        -0.863535      0.131240      0.407655
C     14.38384     10.62556      5.61067         1.041371      0.289022     -0.306510
C     14.38384     10.35284     15.36773         0.755904     -0.115081      0.423293
C      5.61067      6.59456     10.35284        -0.384810     -0.926598      0.208173
C     15.36773      6.59456     10.62556         0.200975     -0.480479      0.040345
C      5.61067     14.38384     10.62556        -0.248133      0.381692     -0.008882
C     15.36773     14.38384     10.35284         0.318586      0.338674      0.257596
C      5.61067     10.35284      6.59456        -0.333758      0.012001     -0.818735
C     15.36773     10.62556      6.59456         0.534637     -0.168515     -1.195188
C      5.61067     10.62556     14.38384        -0.507876      0.008821      1.079660
C     15.36773     10.35284     14.38384         0.544572     -0.197115      1.332228
C     10.35284      6.59456      5.61067        -0.007014     -1.120809     -0.715548
C     10.62556      6.59456     15.36773         0.056111     -0.891733      0.378109
C     10.62556     14.38384      5.61067        -0.039264      1.380527     -0.716811
C     10.35284     14.38384     15.36773         0.054958      0.647444      0.582008
C      6.59456      5.61067     10.35284        -0.090766     -0.901069      0.134444
C      6.59456     15.36773     10.62556        -1.723652      0.487719      0.057296
C     14.38384      5.61067     10.62556         0.556051     -0.225936      0.005272
C     14.38384     15.36773     10.35284         0.469624      0.505081     -0.216420
C     10.40319      3.19606      7.29314         0.017702      0.974230     -0.229648
C     10.35913      4.25547      6.23373        -0.034502     -0.290010      0.748805
C      0.08601      7.29314      7.29314        -0.010995     -0.223726     -0.463065
C      0.13007      6.23373      6.23373        -0.014705      0.146698      0.172561
C      0.08601      3.19606      3.19606        -0.023418      0.710554      0.150187
C      0.13007      4.25547      4.25547        -0.104807     -0.192990     -0.157931
C     10.40319      7.29314      3.19606        -0.003347     -0.650638      0.484944
C     10.35913      6.23373      4.25547         0.001694      0.566262     -0.312831
C      7.29314     10.40319      3.19606        -0.403481      0.017816      0.904589
C      6.23373     10.35913      4.25547         0.238941     -0.008421     -0.181243
C      7.29314      0.08601      7.29314        -0.306061     -0.053952     -0.240891
C      6.23373      0.13007      6.23373         0.293418     -0.090966      0.245950
C      3.19606      0.08601      3.19606         0.332442     -0.058511      1.351544
C      4.25547      0.13007      4.25547        -0.194042     -0.014017     -0.439221
C      3.19606     10.40319      7.29314         0.748726      0.017671     -0.257979
C      4.25547     10.35913      6.23373        -0.118182      0.039294      0.122623
C      3.19606      7.29314     10.40319         0.527584     -1.235900      0.041018
C      4.25547      6.23373     10.35913        -0.756317      0.712833      0.026879
C      7.29314      7.29314      0.08601        -0.648201     -0.192307     -0.023341
C      6.23373      6.23373      0.13007         0.173815      0.257741     -0.012615
C      3.19606      3.19606      0.08601         0.257836      0.264685     -0.018725
C      4.25547      4.25547      0.13007        -0.054922     -0.034382      0.013492
C      7.29314      3.19606     10.40319        -0.342773      0.703383      0.030084
C      6.23373      4.25547     10.35913         0.713120     -0.217123      0.029401
O     10.43466      3.58206      8.50569        -0.055038      0.023250      0.282545
O     10.54374     17.39634      8.50569        -0.020604     -0.194936      0.616706
O     10.54374      3.58206     12.47271         0.067341      0.045627     -0.289978
O     10.43466     17.39634     12.47271        -0.023843     -0.127598     -0.555498
O      8.50569     10.43466      3.58206         0.390925     -0.008801     -0.013000
O      8.50569     10.54374     17.39634         0.464821      0.058912     -0.144206
O     12.47271     10.54374      3.58206        -0.214805      0.067936     -0.117348
O     12.47271     10.43466     17.39634        -0.849835      0.026319     -0.208756
O      3.58206      8.50569     10.43466         0.034315      0.885085      0.042133
O     17.39634      8.50569     10.54374        -0.029379      0.354624      0.080722
O      3.58206     12.47271     10.54374         0.062801     -0.432584      0.059339
O     17.39634     12.47271     10.43466        -0.156677     -0.715729      0.011651
O      3.58206     10.43466      8.50569        -0.054958     -0.061426      0.226556
O     17.39634     10.54374      8.50569        -0.135024      0.042984      0.440858
O      3.58206     10.54374     12.47271        -0.059338     -0.061594     -0.869819
O     17.39634     10.43466     12.47271        -0.194837      0.044416     -0.769903
O     10.43466      8.50569      3.58206         0.025958      0.672333      0.200581
O     10.54374      8.50569     17.39634         0.055140      0.396432     -0.069387
O     10.54374     12.47271      3.58206        -0.047509     -0.741419      0.250187
O     10.43466     12.47271     17.39634         0.062324     -0.848292     -0.279779
O      8.50569      3.58206     10.43466         0.494340      0.092758     -0.041168
O      8.50569     17.39634     10.54374         0.658316     -0.233995     -0.057197
O     12.47271      3.58206     10.54374        -0.511719      0.157395      0.041188
O     12.47271     17.39634     10.43466        -0.473085     -0.031477     -0.044515
O     11.90042     11.90042     19.56718        -0.308477     -0.310878      0.258936
O     19.56718     19.56718     19.56718         0.292470      0.274805      0.321469
O     19.56718     11.90042     11.90042         0.281106     -0.329989     -0.231862
O     11.90042     19.56718     11.90042        -0.220532      0.294300     -0.242277
O      9.45224      1.03696      9.45224        -0.070548      0.061325     -0.065670
O      1.03696      9.45224      9.45224         0.070482     -0.142705     -0.049793
O      1.03696      1.03696      1.03696         0.045836      0.029761      0.190242
O      9.45224      9.45224      1.03696        -0.034968     -0.086052      0.135568
Zr     10.48920      2.52580     10.48920        -0.000096     -0.071636     -0.027387
Zr     10.48920     18.45260     10.48920         0.030876      0.289411     -0.065460
Zr     10.48920     10.48920      2.52580        -0.066764     -0.032610     -0.366828
Zr     10.48920     10.48920     18.45260        -0.153728     -0.201353      0.299637
Zr      2.52580     10.48920     10.48920        -0.323920      0.345489     -0.484294
Zr     18.45260     10.48920     10.48920         0.213219      0.039940     -0.305189
Pd      9.04013     10.27656     13.46858         0.013860      0.004320     -0.049309
Pd     10.63882      9.72429     11.23418        -0.014515     -0.006212     -0.063148
Pd     13.76902      8.53539     12.80301        -0.003292      0.007001     -0.027988
Pd     11.01600     11.13441     15.10373        -0.005362     -0.015222     -0.016055
Pd     12.81752     11.15610     13.04933         0.013513      0.017524      0.011524
Pd     15.00254     10.81251     11.37872        -0.029189      0.044322     -0.010457
Pd      6.67781      7.40477     12.31293         0.007562      0.005071      0.003226
Pd      9.29376      7.34382     10.24504        -0.049567     -0.040010     -0.011325
Pd      9.24518      7.64355     12.91062         0.009878      0.006759     -0.029581
Pd     11.72165      7.26561     11.62308        -0.005845     -0.004117     -0.036005
Pd     11.49571      7.82902      8.95039        -0.087964      0.090426     -0.018247
Pd      7.21430     11.83854     12.06352         0.014848      0.000742     -0.021736
Pd      8.92498     14.65174      9.33544        -0.023691      0.003225     -0.000941
Pd      8.44387     12.73348     14.35291        -0.011582     -0.022980     -0.009597
Pd     13.21971     13.94145      8.69813         0.059098      0.022818     -0.033375
Pd     10.77811     13.08545      8.44229         0.038951      0.071863      0.003672
Pd     14.04303     11.40844      9.00930         0.013158      0.020476     -0.044291
Pd      8.64678     14.09409     12.07316        -0.013647     -0.004719      0.008428
Pd     12.23225     13.74566     13.97629         0.005595      0.014723      0.016772
Pd     11.16178     14.36739     11.03875        -0.014390      0.009397      0.014407
Pd     14.05503     13.43271     12.13253         0.012288      0.044708      0.023129
Pd     12.24591     12.06410     10.68339         0.045087      0.040656      0.011113
Pd     12.48135     11.96405      6.85648         0.022402      0.094208     -0.057393
Pd     13.58148      8.98421      7.86989        -0.007751     -0.038459      0.023397
Pd      6.94474      8.40193      8.96373        -0.048174      0.025731     -0.037641
Pd      5.51426      9.86819     11.35248        -0.012381     -0.002309     -0.003657
Pd      8.91105      9.93683      8.06774         0.078325     -0.043680      0.099599
Pd      9.04694      7.40249      7.58149        -0.088349     -0.049868     -0.024725
Pd      9.40954     11.99262     10.44783         0.045168      0.018556      0.003933
Pd     11.34036     10.47711      8.79588         0.057646      0.085965     -0.060834
Pd     11.08491      9.36979      6.46625         0.015455     -0.002661      0.005430
Pd      9.68929     11.73643      6.24962         0.015163     -0.033908      0.027886
Ir     11.37295      9.07106     13.57120        -0.002155      0.007112     -0.049040
Ir     13.06894      9.36865     10.45345         0.013822      0.006105     -0.007736
Ir     10.51864     12.33998     12.70480         0.004895      0.012886     -0.007098
Ir      7.02899     10.96708      9.60074         0.018616      0.031791     -0.048802
Ir      8.19385     12.46976      8.20700         0.028548     -0.030180      0.015346
Ir      8.09279      9.36296     11.19701         0.034469     -0.034743     -0.011895
