152
# total energy = -1004.47890830 eVH     10.35389      5.87395      7.64558        -0.131699      0.128829      0.650776
H     10.62451     15.10445      7.64558        -0.139011     -0.175000      0.546105
H     10.62451      5.87395     13.33282         0.399706      0.026779     -0.864365
H     10.35389     15.10445     13.33282         0.052630     -0.174259     -0.498802
H      7.64558     10.35389      5.87395         0.361050      0.044319      0.149581
H      7.64558     10.62451     15.10445         0.928882      0.629500      0.020555
H     13.33282     10.62451      5.87395        -0.455686      0.078689      0.176551
H     13.33282     10.35389     15.10445        -0.824331     -0.241788      0.037209
H      5.87395      7.64558     10.35389         0.195140      1.743697      0.161149
H     15.10445      7.64558     10.62451        -0.080485      0.500670      0.254383
H      5.87395     13.33282     10.62451         0.199573     -0.561937     -0.011538
H     15.10445     13.33282     10.35389         0.204689     -1.317173     -0.469139
H      5.87395     10.35389      7.64558         0.139771      0.040265      0.499121
H     15.10445     10.62451      7.64558        -0.216698      0.882280      1.385152
H      5.87395     10.62451     13.33282        -0.028251      0.555537     -1.244627
H     15.10445     10.35389     13.33282         0.086619     -0.213122     -0.803930
H     10.35389      7.64558      5.87395         0.258914      1.272247      0.127538
H     10.62451      7.64558     15.10445         0.514413      0.764096     -0.097696
H     10.62451     13.33282      5.87395        -0.462157     -0.705603      0.313144
H     10.35389     13.33282     15.10445        -0.236673     -0.502637     -0.327846
H      7.64558      5.87395     10.35389         1.186019     -0.241817     -0.079864
H      7.64558     15.10445     10.62451         0.834200     -0.192874     -0.017053
H     13.33282      5.87395     10.62451        -0.597409      0.122915      0.652973
H     13.33282     15.10445     10.35389        -0.520765     -0.020121     -0.227494
H     12.45634     12.45634     19.01126         0.267770      0.254130     -0.230813
H     19.01126     19.01126     19.01126        -0.268385     -0.263728     -0.222074
H     19.01126     12.45634     12.45634        -0.277827      0.256179      0.227258
H     12.45634     19.01126     12.45634         0.242940     -0.280232      0.242007
C     10.35284      5.61067      6.59456        -0.156527     -0.793506     -0.422888
C     10.62556     15.36773      6.59456         0.074587      0.246842     -0.283085
C     10.62556      5.61067     14.38384        -0.040706     -0.442914      0.574651
C     10.35284     15.36773     14.38384         0.008879      0.246248      0.487060
C      6.59456     10.35284      5.61067        -0.467234      0.043464     -0.316293
C      6.59456     10.62556     15.36773        -0.917757      0.185864      0.708544
C     14.38384     10.62556      5.61067         0.660476      0.019364     -0.945402
C     14.38384     10.35284     15.36773         0.932464     -0.125402      0.379409
C      5.61067      6.59456     10.35284        -0.895482     -1.001050     -0.486818
C     15.36773      6.59456     10.62556         0.695776     -0.028235     -0.234206
C      5.61067     14.38384     10.62556        -0.253843      0.607891      0.012471
C     15.36773     14.38384     10.35284         0.309809      1.309068      0.072947
C      5.61067     10.35284      6.59456        -0.272937      0.012522     -0.695476
C     15.36773     10.62556      6.59456         0.506591     -0.338150     -0.930436
C      5.61067     10.62556     14.38384        -0.508140     -0.006619      0.854893
C     15.36773     10.35284     14.38384         0.499015     -0.077853      1.012307
C     10.35284      6.59456      5.61067        -0.108554     -0.894035     -0.367785
C     10.62556      6.59456     15.36773         0.113575     -0.753340      0.492946
C     10.62556     14.38384      5.61067         0.138578      1.098544     -0.328532
C     10.35284     14.38384     15.36773        -0.022666      1.031819      0.492971
C      6.59456      5.61067     10.35284        -0.570519     -1.247044      0.084718
C      6.59456     15.36773     10.62556        -0.985915      0.189108      0.099596
C     14.38384      5.61067     10.62556        -0.131094     -0.483928     -0.287563
C     14.38384     15.36773     10.35284         0.255754      0.593668     -0.071297
C     10.40319      3.19606      7.29314         0.009440      0.853994     -0.542178
C     10.35913      4.25547      6.23373         0.040227     -0.531088      0.133355
C      0.08601      7.29314      7.29314        -0.027005     -0.984354     -0.225003
C      0.13007      6.23373      6.23373        -0.085961      0.339751      0.318853
C      0.08601      3.19606      3.19606         0.053147      1.315215      0.146011
C      0.13007      4.25547      4.25547        -0.026023     -0.337989     -0.398857
C     10.40319      7.29314      3.19606        -0.004846     -0.497391      0.258726
C     10.35913      6.23373      4.25547        -0.020731      0.117041     -0.713441
C      7.29314     10.40319      3.19606        -0.312886      0.022175      0.484328
C      6.23373     10.35913      4.25547         0.217464      0.090932     -0.109715
C      7.29314      0.08601      7.29314        -1.023894     -0.098036     -0.388554
C      6.23373      0.13007      6.23373         0.676737     -0.198436      0.453787
C      3.19606      0.08601      3.19606         1.205377     -0.021571      0.397387
C      4.25547      0.13007      4.25547        -0.671397     -0.168719     -0.237498
C      3.19606     10.40319      7.29314         0.564381      0.026421     -0.339137
C      4.25547     10.35913      6.23373        -0.240529      0.104220      0.222168
C      3.19606      7.29314     10.40319         0.333132     -0.836196      0.036934
C      4.25547      6.23373     10.35913        -1.096346      0.126586      0.185640
C      7.29314      7.29314      0.08601        -0.467988     -0.499481     -0.014964
C      6.23373      6.23373      0.13007         0.481776      0.313819      0.003849
C      3.19606      3.19606      0.08601         0.532585      0.399639     -0.022110
C      4.25547      4.25547      0.13007        -0.020396     -0.726568     -0.096201
C      7.29314      3.19606     10.40319        -0.394709      0.506388      0.056100
C      6.23373      4.25547     10.35913         0.567724     -0.714137      0.215043
O     10.43466      3.58206      8.50569         0.004329      0.088331      0.506931
O     10.54374     17.39634      8.50569         0.054845     -0.023751      0.273257
O     10.54374      3.58206     12.47271        -0.003451     -0.083964     -0.134259
O     10.43466     17.39634     12.47271        -0.037888     -0.129012     -0.467713
O      8.50569     10.43466      3.58206         0.409086     -0.027962      0.061414
O      8.50569     10.54374     17.39634         0.838350     -0.056196     -0.157055
O     12.47271     10.54374      3.58206        -0.890536      0.119766      0.082708
O     12.47271     10.43466     17.39634        -0.597599      0.024203     -0.153770
O      3.58206      8.50569     10.43466         0.191450      0.857102     -0.017837
O     17.39634      8.50569     10.54374        -0.152584      0.672866      0.038385
O      3.58206     12.47271     10.54374         0.107208     -0.543074      0.053216
O     17.39634     12.47271     10.43466        -0.166901     -0.603761     -0.039397
O      3.58206     10.43466      8.50569         0.078232     -0.056818      0.447024
O     17.39634     10.54374      8.50569         0.028336      0.095313      0.396424
O      3.58206     10.54374     12.47271        -0.024677      0.026332     -0.316844
O     17.39634     10.43466     12.47271        -0.186399     -0.033962     -0.630233
O     10.43466      8.50569      3.58206        -0.030998      0.592827      0.165227
O     10.54374      8.50569     17.39634        -0.092536      0.798360     -0.221840
O     10.54374     12.47271      3.58206         0.102563     -0.955558      0.149349
O     10.43466     12.47271     17.39634         0.066818     -0.710841     -0.182318
O      8.50569      3.58206     10.43466         0.569513      0.141060     -0.047048
O      8.50569     17.39634     10.54374         0.548385     -0.150191      0.005633
O     12.47271      3.58206     10.54374        -0.686900      0.153981      0.018825
O     12.47271     17.39634     10.43466        -0.433965     -0.059979     -0.033357
O     11.90042     11.90042     19.56718        -0.317959     -0.289549      0.243763
O     19.56718     19.56718     19.56718         0.302523      0.309068      0.217962
O     19.56718     11.90042     11.90042         0.336657     -0.275208     -0.235184
O     11.90042     19.56718     11.90042        -0.263211      0.346643     -0.257815
O      9.45224      1.03696      9.45224        -0.025246      0.082778     -0.126403
O      1.03696      9.45224      9.45224         0.067932     -0.038202     -0.125984
O      1.03696      1.03696      1.03696         0.076756      0.102622      0.089532
O      9.45224      9.45224      1.03696        -0.054981     -0.045635      0.072092
Zr     10.48920      2.52580     10.48920        -0.064385     -0.202628      0.038141
Zr     10.48920     18.45260     10.48920         0.003628      0.075238      0.152541
Zr     10.48920     10.48920      2.52580        -0.298293     -0.393091     -0.348665
Zr     10.48920     10.48920     18.45260         0.100928      0.024007      0.402070
Zr      2.52580     10.48920     10.48920        -0.202365      0.082273     -0.019279
Zr     18.45260     10.48920     10.48920         0.174598     -0.004668      0.020841
Pd     13.02575      8.51085      9.83944         0.011743     -0.031150     -0.064680
Pd      6.26122      9.60245     10.25476        -0.014969      0.026595      0.016927
Pd      6.98124     11.59484     11.77572        -0.027155      0.049081      0.012052
Pd     12.37253     13.32298      7.28184        -0.052200     -0.080504      0.060383
Pd     12.14413      7.84284      7.13202        -0.043735     -0.012669     -0.056320
Pd      8.46872      7.29231      6.88647         0.055942     -0.006047     -0.013067
Pd     11.38686     11.46498      5.60172        -0.077252     -0.057582     -0.066279
Pd     14.56710      8.81242      7.66204        -0.062175     -0.054707     -0.084352
Pd      9.89741     11.81520      7.96679         0.025098     -0.017420      0.007972
Pd      7.05338      7.13614     12.01491        -0.050598     -0.017828      0.030957
Pd      6.33604      7.50755      8.40346         0.032544     -0.026986      0.011850
Pd      7.21918      9.14727     13.64918         0.044415     -0.054042     -0.048836
Pd     11.40419      6.33734      9.22934         0.058162      0.006961     -0.003183
Pd     10.00819      9.51856      6.58763        -0.038568     -0.049695     -0.006381
Pd      9.04559     13.99482      9.36903         0.019794      0.000998     -0.005004
Pd     10.86705      7.45207     11.46827        -0.012110      0.008925      0.028344
Pd     10.47676      9.08311      9.27375        -0.053570      0.043073      0.011393
Pd      9.49133     11.54699     10.57472        -0.063901     -0.022162     -0.022723
Pd      8.83829      7.11353      9.58328         0.037933      0.017780      0.011943
Pd      9.18459      7.42920     13.48850        -0.005958     -0.003398      0.037295
Pd      8.67932      9.22128     11.35557        -0.034409     -0.071769     -0.033452
Pd     12.25701     10.46263      7.90553         0.022594      0.016092     -0.034242
Pd      7.28086     11.93822      9.13516         0.006325      0.073971      0.028769
Pd      8.09448      9.58243      8.36582         0.011569     -0.005801      0.026371
Pd     13.99531      6.38451      8.51800         0.090128     -0.050314     -0.026191
Pd     13.16797      8.48177     12.47117         0.044773     -0.023017     -0.130016
Pd      9.02595     11.43878     13.35434        -0.028910     -0.054334      0.050742
Pd     13.91532     12.07327      9.02347         0.010569     -0.012988     -0.011663
Pd     13.18312     11.14707     13.16813        -0.054520      0.019383     -0.001564
Pd     14.65471     10.36808     10.96788         0.006741     -0.019601     -0.029575
Pd     12.02090     10.77628     10.70758        -0.026432     -0.025322      0.093303
Pd     11.53354     13.25415      9.74635        -0.001746      0.031080      0.119391
Pd     13.64274     13.09613     11.54111        -0.008775      0.046408      0.076088
Pd     11.16007     12.78468     12.37686        -0.047419      0.012770      0.081854
Pd     11.23112     11.58341     14.87145        -0.026060      0.050170      0.024197
Pd     10.91447      9.69753     12.88870        -0.045190     -0.013121     -0.064873
Pd      9.54167      9.54808     15.21528        -0.047874     -0.048343     -0.003699
Pd      8.70039     13.73396     12.02298         0.027587      0.042412     -0.019584
