152
# total energy = -1061.43806023 eVH     10.35389      5.87395      7.64558        -0.153585      0.121151      1.006739
H     10.62451     15.10445      7.64558         0.398602     -0.099876      0.775083
H     10.62451      5.87395     13.33282        -0.114283      0.092697     -0.476931
H     10.35389     15.10445     13.33282         0.091252     -0.183984     -0.388720
H      7.64558     10.35389      5.87395         0.933833      0.179332      0.206342
H      7.64558     10.62451     15.10445         0.206364     -0.022139     -0.066567
H     13.33282     10.62451      5.87395        -0.631445     -0.024901      0.164110
H     13.33282     10.35389     15.10445        -0.326874     -0.067291     -0.064935
H      5.87395      7.64558     10.35389         0.135481      0.356070     -0.069940
H     15.10445      7.64558     10.62451        -0.137185      0.495798      0.204129
H      5.87395     13.33282     10.62451         0.120192     -0.599837      0.072343
H     15.10445     13.33282     10.35389        -0.231852     -0.429311      0.091227
H      5.87395     10.35389      7.64558         0.161936      0.244768      0.370894
H     15.10445     10.62451      7.64558        -0.138372     -0.372850      0.732686
H      5.87395     10.62451     13.33282         0.033908      0.129467     -0.710252
H     15.10445     10.35389     13.33282         0.099542     -0.277840     -0.757427
H     10.35389      7.64558      5.87395        -0.121245      0.435848      0.231456
H     10.62451      7.64558     15.10445         0.372699      0.618534     -0.114313
H     10.62451     13.33282      5.87395         0.149051     -0.581975      0.104558
H     10.35389     13.33282     15.10445         0.240311     -0.727857     -0.079751
H      7.64558      5.87395     10.35389         0.481005      0.150745     -0.149534
H      7.64558     15.10445     10.62451         0.414986     -0.160652      0.393897
H     13.33282      5.87395     10.62451        -0.380884      0.158522     -0.073095
H     13.33282     15.10445     10.35389        -0.568270     -0.287092      0.115486
H     12.45634     12.45634     19.01126         0.233662      0.264913     -0.246100
H     19.01126     19.01126     19.01126        -0.260485     -0.260729     -0.229100
H     19.01126     12.45634     12.45634        -0.233334      0.273008      0.239039
H     12.45634     19.01126     12.45634         0.277623     -0.211397      0.254534
C     10.35284      5.61067      6.59456         0.281716     -0.291059     -0.815592
C     10.62556     15.36773      6.59456        -0.195389      0.642743     -0.224927
C     10.62556      5.61067     14.38384         0.261152     -0.287669      0.504201
C     10.35284     15.36773     14.38384        -0.114414      0.269916      0.242722
C      6.59456     10.35284      5.61067        -0.893234     -0.114379     -0.231341
C      6.59456     10.62556     15.36773        -0.517881      0.045616      0.347683
C     14.38384     10.62556      5.61067         0.833537     -0.043540     -0.636515
C     14.38384     10.35284     15.36773         0.268088     -0.084776      0.369826
C      5.61067      6.59456     10.35284        -0.392837     -0.354383      0.069629
C     15.36773      6.59456     10.62556         0.291785     -0.566899     -0.094096
C      5.61067     14.38384     10.62556        -0.152584      0.530580     -0.333907
C     15.36773     14.38384     10.35284         0.409550      0.829550     -0.100795
C      5.61067     10.35284      6.59456        -0.298579     -0.141584     -0.107465
C     15.36773     10.62556      6.59456         0.230098      0.291493     -0.580225
C      5.61067     10.62556     14.38384        -0.341538     -0.031972      1.209575
C     15.36773     10.35284     14.38384         0.287662     -0.048264      1.021076
C     10.35284      6.59456      5.61067         0.081679     -0.275417     -0.488460
C     10.62556      6.59456     15.36773         0.008161     -0.787553      0.190013
C     10.62556     14.38384      5.61067        -0.383901      0.090952     -0.866033
C     10.35284     14.38384     15.36773        -0.260494      0.869527      0.256044
C      6.59456      5.61067     10.35284        -0.357190     -0.280407      0.251753
C      6.59456     15.36773     10.62556        -0.411549      0.555724     -0.012014
C     14.38384      5.61067     10.62556         0.459185     -0.346860      0.063332
C     14.38384     15.36773     10.35284         0.943183      0.264933     -0.055684
C     10.40319      3.19606      7.29314         0.005134      0.560318     -0.313822
C     10.35913      4.25547      6.23373        -0.009123     -0.510684      0.435850
C      0.08601      7.29314      7.29314        -0.013215     -0.880949     -0.549490
C      0.13007      6.23373      6.23373        -0.167049      0.873266      0.137067
C      0.08601      3.19606      3.19606        -0.013127      0.388114      0.383717
C      0.13007      4.25547      4.25547         0.057645     -0.189895     -0.617924
C     10.40319      7.29314      3.19606        -0.048494     -1.091790      0.742779
C     10.35913      6.23373      4.25547         0.012222      0.338274     -0.204036
C      7.29314     10.40319      3.19606        -1.215623     -0.081143      0.325510
C      6.23373     10.35913      4.25547         0.277949      0.025373     -0.693811
C      7.29314      0.08601      7.29314        -0.849483     -0.002843     -0.412157
C      6.23373      0.13007      6.23373         0.316758      0.051394      0.131440
C      3.19606      0.08601      3.19606         0.324482     -0.000535      0.425148
C      4.25547      0.13007      4.25547        -0.289781     -0.037165     -0.176711
C      3.19606     10.40319      7.29314         0.506737     -0.043910     -1.008215
C      4.25547     10.35913      6.23373        -0.307862     -0.067457      0.102778
C      3.19606      7.29314     10.40319         1.062371     -0.474589      0.003392
C      4.25547      6.23373     10.35913        -0.184965      0.166996     -0.001190
C      7.29314      7.29314      0.08601        -0.462803     -0.277487     -0.007523
C      6.23373      6.23373      0.13007         0.204966      0.111003     -0.141924
C      3.19606      3.19606      0.08601         0.346210      0.811120     -0.008808
C      4.25547      4.25547      0.13007        -0.490879     -0.190457      0.046599
C      7.29314      3.19606     10.40319        -0.200981      0.510568      0.024876
C      6.23373      4.25547     10.35913         0.000470     -0.351246      0.042214
O     10.43466      3.58206      8.50569        -0.022724      0.132952      0.378725
O     10.54374     17.39634      8.50569         0.045443      0.059968      0.350065
O     10.54374      3.58206     12.47271         0.042280      0.197425     -0.575026
O     10.43466     17.39634     12.47271         0.026154      0.000142     -0.426197
O      8.50569     10.43466      3.58206         0.760144     -0.069476      0.032872
O      8.50569     10.54374     17.39634         0.862764      0.024245     -0.160196
O     12.47271     10.54374      3.58206        -0.348799      0.038638      0.075251
O     12.47271     10.43466     17.39634        -0.389683     -0.034874      0.034995
O      3.58206      8.50569     10.43466        -0.094225      0.294384     -0.077050
O     17.39634      8.50569     10.54374        -0.109740      0.442866      0.039808
O      3.58206     12.47271     10.54374         0.143038     -0.789466     -0.014344
O     17.39634     12.47271     10.43466        -0.240241     -0.637698     -0.015227
O      3.58206     10.43466      8.50569         0.124268     -0.036895      0.780899
O     17.39634     10.54374      8.50569         0.010668      0.037265      0.327093
O      3.58206     10.54374     12.47271         0.068837      0.018913     -0.462411
O     17.39634     10.43466     12.47271         0.027259      0.013820     -0.259282
O     10.43466      8.50569      3.58206        -0.062778      0.607560     -0.056711
O     10.54374      8.50569     17.39634         0.025757      0.891454     -0.205188
O     10.54374     12.47271      3.58206         0.064717     -0.373133      0.084501
O     10.43466     12.47271     17.39634        -0.055711     -0.643628     -0.196288
O      8.50569      3.58206     10.43466         0.346557      0.079267     -0.052159
O      8.50569     17.39634     10.54374         0.538484     -0.152518     -0.005590
O     12.47271      3.58206     10.54374        -0.374898      0.062605      0.034020
O     12.47271     17.39634     10.43466        -0.821455     -0.135161      0.058526
O     11.90042     11.90042     19.56718        -0.246945     -0.283032      0.236638
O     19.56718     19.56718     19.56718         0.297485      0.296171      0.249583
O     19.56718     11.90042     11.90042         0.231276     -0.303770     -0.279932
O     11.90042     19.56718     11.90042        -0.274722      0.180410     -0.270679
O      9.45224      1.03696      9.45224        -0.113084      0.095156     -0.082761
O      1.03696      9.45224      9.45224         0.135040     -0.144246     -0.167595
O      1.03696      1.03696      1.03696         0.134347      0.199429      0.000883
O      9.45224      9.45224      1.03696        -0.207596     -0.163251      0.040499
Zr     10.48920      2.52580     10.48920         0.002896     -0.232471      0.153465
Zr     10.48920     18.45260     10.48920        -0.306031      0.296099     -0.165117
Zr     10.48920     10.48920      2.52580         0.326602      0.418869     -0.222380
Zr     10.48920     10.48920     18.45260         0.006226      0.011558      0.480046
Zr      2.52580     10.48920     10.48920        -0.552253      0.045665      0.327912
Zr     18.45260     10.48920     10.48920         0.270793     -0.150662      0.009341
Pd      9.14932     14.58950      9.21539         0.021672     -0.008222     -0.010996
Pd      8.44650     13.23035     13.83111         0.023408     -0.007679     -0.037270
Pd     12.14208     14.10822      8.64936         0.009398      0.009024      0.013508
Pd     12.26743     12.75258     10.90564        -0.014955      0.017450     -0.018990
Pd     11.81016      7.08376     11.95335        -0.006759      0.018864     -0.014389
Pd     11.14222     15.30916     10.87326        -0.015819     -0.007997      0.039362
Pd      9.62820     13.14846     11.43039         0.011606      0.013929      0.002221
Pd     14.04625     12.39108      8.01438        -0.006797      0.012929     -0.031629
Pd     11.60375     11.76256      6.77385        -0.023547      0.005754     -0.004636
Pd      7.51312      8.54711      7.18278        -0.017982     -0.011417      0.007796
Pd      8.65457     12.00943      6.91721        -0.004400      0.018354      0.009021
Pd      9.79381      9.86614      8.03046        -0.018268      0.024431      0.000512
Pd      8.49352     14.65662      6.56428        -0.027252      0.019524     -0.008507
Pd     12.09991      9.05928      6.86590        -0.007793     -0.012382     -0.017127
Pd      9.95404      9.99059      5.42154        -0.005427      0.018968     -0.017868
Pd      6.93073      9.21526     12.17884         0.020093     -0.030153     -0.009685
Pd     12.43263      6.53557      7.69839        -0.002377     -0.026748     -0.007868
Pd      5.59185     10.64522     10.11678        -0.016079      0.027515     -0.000241
Pd      7.60140      6.65381     12.70830        -0.007584      0.038576      0.013250
Ir     11.30016      9.55079     12.87770         0.010041      0.010030      0.004875
Ir     13.09932      9.23979     11.12920        -0.040129     -0.029430     -0.036170
Ir      9.15721      8.43570     13.76967         0.010204      0.011153     -0.019050
Ir     10.28517     10.38067     15.10082         0.007539     -0.017853     -0.002527
Ir      7.10780     11.89608     11.86019         0.007774      0.017342     -0.032229
Ir     14.43779     11.17782     10.35347         0.017555      0.008262     -0.028749
Ir     12.29887     10.61035      9.09186         0.012674      0.012976      0.040693
Ir      8.94495     10.81300     12.92450        -0.047558     -0.025390     -0.039941
Ir     10.04262     10.28404     10.65572         0.003927      0.009165     -0.062748
Ir     13.32177     11.22416     12.63966        -0.012143     -0.016494      0.025955
Ir     11.11996     12.04956     13.36538        -0.017276      0.000347      0.015481
Ir      7.96789     11.71901      9.53822        -0.015413      0.021682     -0.034765
Ir     11.32589      8.13218      9.49200        -0.054069      0.018416     -0.010305
Ir      6.95355     13.49513      8.30232         0.005432      0.005506      0.034983
Ir      9.10164      7.27948      8.81223         0.027195      0.012201     -0.004073
Ir      7.77429      9.20458      9.71053        -0.001566      0.004185      0.044507
Ir     10.37474     12.31694      9.00161        -0.005451     -0.017244     -0.009950
Ir      9.35337      7.89185     11.26649        -0.023171     -0.018679      0.034565
Ir     13.78366      8.47419      8.83603        -0.017253     -0.007137     -0.008425
