152
# total energy = -1022.66309358 eVH     10.35389      5.87395      7.64558         0.452241      0.015301      0.955806
H     10.62451     15.10445      7.64558         0.002294     -0.002193      0.701069
H     10.62451      5.87395     13.33282         0.134736      0.112466     -0.611000
H     10.35389     15.10445     13.33282        -0.273114     -0.069528     -0.551942
H      7.64558     10.35389      5.87395         0.353611     -0.057029      0.195857
H      7.64558     10.62451     15.10445         0.619787     -0.165452     -0.135621
H     13.33282     10.62451      5.87395        -0.966718     -0.430862      0.103569
H     13.33282     10.35389     15.10445        -0.481973     -0.082448     -0.050686
H      5.87395      7.64558     10.35389         0.090228      1.197514     -0.097831
H     15.10445      7.64558     10.62451        -0.170455      0.397293     -0.078234
H      5.87395     13.33282     10.62451         0.143512     -0.392419     -0.068292
H     15.10445     13.33282     10.35389        -0.083670     -0.969136     -0.278109
H      5.87395     10.35389      7.64558         0.121894      0.007861      0.445685
H     15.10445     10.62451      7.64558         0.142735     -0.198000      0.751323
H      5.87395     10.62451     13.33282         0.271975     -0.038536     -0.410149
H     15.10445     10.35389     13.33282        -0.151840      0.032465     -0.631084
H     10.35389      7.64558      5.87395         0.152828      0.846561      0.101830
H     10.62451      7.64558     15.10445         0.018364      0.646466     -0.130099
H     10.62451     13.33282      5.87395         0.199743     -0.584822      0.180901
H     10.35389     13.33282     15.10445        -0.226083     -0.895832     -0.114057
H      7.64558      5.87395     10.35389         0.522454      0.030296     -0.163118
H      7.64558     15.10445     10.62451         0.917843     -0.185322      0.312651
H     13.33282      5.87395     10.62451        -0.427725      0.190798     -0.066486
H     13.33282     15.10445     10.35389        -0.995159     -0.070680      0.255160
H     12.45634     12.45634     19.01126         0.270006      0.258230     -0.221823
H     19.01126     19.01126     19.01126        -0.248578     -0.235374     -0.261641
H     19.01126     12.45634     12.45634        -0.244193      0.271224      0.236289
H     12.45634     19.01126     12.45634         0.207469     -0.284965      0.255455
C     10.35284      5.61067      6.59456        -0.101236     -0.432495     -0.559928
C     10.62556     15.36773      6.59456         0.013642      0.336620     -1.017965
C     10.62556      5.61067     14.38384        -0.011819     -0.264605      0.730616
C     10.35284     15.36773     14.38384         0.213199      0.734682      0.073618
C      6.59456     10.35284      5.61067        -0.495109     -0.044437     -0.220242
C      6.59456     10.62556     15.36773        -0.808795      0.143148      0.375122
C     14.38384     10.62556      5.61067         0.897804      0.285523     -0.338817
C     14.38384     10.35284     15.36773         0.753062     -0.124705      0.429464
C      5.61067      6.59456     10.35284        -0.409211     -0.876818      0.216459
C     15.36773      6.59456     10.62556         0.208147     -0.482054      0.040956
C      5.61067     14.38384     10.62556        -0.260287      0.381428     -0.014345
C     15.36773     14.38384     10.35284         0.347622      0.245757      0.253302
C      5.61067     10.35284      6.59456        -0.318306      0.002898     -0.864272
C     15.36773     10.62556      6.59456         0.537816     -0.138301     -1.225114
C      5.61067     10.62556     14.38384        -0.494156      0.007248      1.015359
C     15.36773     10.35284     14.38384         0.545063     -0.185422      1.280780
C     10.35284      6.59456      5.61067        -0.026513     -0.967344     -0.684920
C     10.62556      6.59456     15.36773         0.050740     -0.794585      0.347540
C     10.62556     14.38384      5.61067        -0.004983      1.350971     -0.731199
C     10.35284     14.38384     15.36773         0.070901      0.609797      0.635377
C      6.59456      5.61067     10.35284        -0.219100     -0.905598      0.129083
C      6.59456     15.36773     10.62556        -1.749889      0.492702      0.032854
C     14.38384      5.61067     10.62556         0.565172     -0.224131     -0.003302
C     14.38384     15.36773     10.35284         0.341231      0.501581     -0.219932
C     10.40319      3.19606      7.29314         0.018804      0.950327     -0.240661
C     10.35913      4.25547      6.23373        -0.046390     -0.317989      0.676074
C      0.08601      7.29314      7.29314        -0.010424     -0.224686     -0.459406
C      0.13007      6.23373      6.23373        -0.008346      0.132847      0.189170
C      0.08601      3.19606      3.19606        -0.020920      0.691622      0.161242
C      0.13007      4.25547      4.25547        -0.097910     -0.192409     -0.168415
C     10.40319      7.29314      3.19606        -0.001034     -0.666498      0.500525
C     10.35913      6.23373      4.25547         0.003044      0.546735     -0.326317
C      7.29314     10.40319      3.19606        -0.390950      0.019319      0.850559
C      6.23373     10.35913      4.25547         0.227813      0.005219     -0.160609
C      7.29314      0.08601      7.29314        -0.304080     -0.049654     -0.247701
C      6.23373      0.13007      6.23373         0.264205     -0.071337      0.267579
C      3.19606      0.08601      3.19606         0.368954     -0.055488      1.322377
C      4.25547      0.13007      4.25547        -0.150484     -0.016411     -0.437500
C      3.19606     10.40319      7.29314         0.728603      0.016606     -0.265055
C      4.25547     10.35913      6.23373        -0.130031      0.036672      0.120590
C      3.19606      7.29314     10.40319         0.559183     -1.260470      0.037127
C      4.25547      6.23373     10.35913        -0.744071      0.761533      0.032530
C      7.29314      7.29314      0.08601        -0.645602     -0.175186     -0.024989
C      6.23373      6.23373      0.13007         0.170886      0.267259     -0.015231
C      3.19606      3.19606      0.08601         0.248737      0.256678     -0.020499
C      4.25547      4.25547      0.13007        -0.053266     -0.034633      0.017114
C      7.29314      3.19606     10.40319        -0.364357      0.730948      0.025686
C      6.23373      4.25547     10.35913         0.788379     -0.191452      0.028980
O     10.43466      3.58206      8.50569        -0.053698      0.023249      0.299574
O     10.54374     17.39634      8.50569        -0.019695     -0.190497      0.607561
O     10.54374      3.58206     12.47271         0.062615      0.051246     -0.302006
O     10.43466     17.39634     12.47271        -0.025333     -0.123794     -0.564786
O      8.50569     10.43466      3.58206         0.404656     -0.011627     -0.003716
O      8.50569     10.54374     17.39634         0.466299      0.057003     -0.143974
O     12.47271     10.54374      3.58206        -0.242464      0.062122     -0.101490
O     12.47271     10.43466     17.39634        -0.849126      0.024103     -0.213076
O      3.58206      8.50569     10.43466         0.033292      0.900800      0.041619
O     17.39634      8.50569     10.54374        -0.036323      0.346789      0.079681
O      3.58206     12.47271     10.54374         0.066586     -0.425011      0.060160
O     17.39634     12.47271     10.43466        -0.162061     -0.736089      0.013320
O      3.58206     10.43466      8.50569        -0.055444     -0.061946      0.230007
O     17.39634     10.54374      8.50569        -0.133677      0.042506      0.446518
O      3.58206     10.54374     12.47271        -0.045319     -0.058067     -0.867599
O     17.39634     10.43466     12.47271        -0.190179      0.038431     -0.749598
O     10.43466      8.50569      3.58206         0.033148      0.683205      0.196025
O     10.54374      8.50569     17.39634         0.053723      0.409212     -0.074336
O     10.54374     12.47271      3.58206        -0.032394     -0.739691      0.245475
O     10.43466     12.47271     17.39634         0.056413     -0.854133     -0.278982
O      8.50569      3.58206     10.43466         0.499905      0.090128     -0.040936
O      8.50569     17.39634     10.54374         0.652501     -0.242014     -0.057773
O     12.47271      3.58206     10.54374        -0.500292      0.160584      0.041944
O     12.47271     17.39634     10.43466        -0.495934     -0.033625     -0.040410
O     11.90042     11.90042     19.56718        -0.306286     -0.310977      0.262219
O     19.56718     19.56718     19.56718         0.290430      0.274193      0.321010
O     19.56718     11.90042     11.90042         0.282972     -0.328095     -0.237566
O     11.90042     19.56718     11.90042        -0.221805      0.294835     -0.241639
O      9.45224      1.03696      9.45224        -0.072126      0.057358     -0.064207
O      1.03696      9.45224      9.45224         0.067392     -0.140724     -0.051126
O      1.03696      1.03696      1.03696         0.047004      0.031169      0.188632
O      9.45224      9.45224      1.03696        -0.036302     -0.085379      0.129538
Zr     10.48920      2.52580     10.48920        -0.002934     -0.076828     -0.030005
Zr     10.48920     18.45260     10.48920         0.040305      0.290434     -0.067050
Zr     10.48920     10.48920      2.52580        -0.087005     -0.023047     -0.373528
Zr     10.48920     10.48920     18.45260        -0.143966     -0.184871      0.308045
Zr      2.52580     10.48920     10.48920        -0.324601      0.332234     -0.478683
Zr     18.45260     10.48920     10.48920         0.220882      0.037810     -0.276773
Pd      9.05489     10.28307     13.40109        -0.005084     -0.000962     -0.022434
Pd     10.63259      9.72609     11.12915        -0.003361      0.014900     -0.047044
Pd     13.76414      8.54487     12.75376        -0.008615     -0.000028     -0.034452
Pd     11.00684     11.10996     15.07409        -0.004906     -0.008759     -0.026102
Pd     12.83865     11.18560     13.06190         0.009986      0.009286     -0.008092
Pd     14.96964     10.88212     11.36257        -0.002644      0.019493     -0.003949
Pd      6.68499      7.41224     12.31840        -0.015633      0.001642      0.010831
Pd      9.22846      7.27567     10.21539        -0.004826     -0.013189     -0.030240
Pd      9.26115      7.64382     12.87023         0.001808     -0.016523     -0.018763
Pd     11.71081      7.26807     11.55376        -0.012314      0.023411     -0.051553
Pd     11.36357      7.96240      8.91608        -0.013871      0.019156     -0.027581
Pd      7.23471     11.83036     12.01824         0.007866     -0.003465     -0.029094
Pd      8.88934     14.65250      9.33468        -0.000107      0.001675     -0.001911
Pd      8.42719     12.69949     14.34149        -0.000395     -0.015368     -0.010247
Pd     13.32203     13.97896      8.65055         0.066823      0.043830     -0.027654
Pd     10.83535     13.19640      8.45159         0.031123      0.058096      0.019967
Pd     14.05238     11.43168      8.95341         0.019084      0.031499     -0.010027
Pd      8.62798     14.09334     12.08705         0.000123      0.009564      0.004168
Pd     12.23931     13.76103     14.00147         0.000332     -0.003826      0.011520
Pd     11.14221     14.39479     11.06521         0.009185      0.018500      0.025048
Pd     14.07482     13.50263     12.16775        -0.002667      0.026453      0.005511
Pd     12.30504     12.11894     10.69456         0.013024      0.014728     -0.010025
Pd     12.53080     12.11613      6.77033         0.053540      0.078582     -0.013991
Pd     13.57466      8.92634      7.89760         0.006965      0.004209      0.014855
Pd      6.87809      8.44425      8.91115        -0.015109      0.017117     -0.022925
Pd      5.52156      9.87544     11.33288         0.016829      0.021084     -0.023318
Pd      9.02511      9.85649      8.21588         0.045073     -0.053637      0.055532
Pd      8.91568      7.32123      7.54470        -0.042133     -0.046850     -0.018244
Pd      9.47075     12.02648     10.44240         0.015141      0.032702     -0.023817
Pd     11.44004     10.61905      8.71317         0.028155      0.041150     -0.043774
Pd     11.11967      9.35290      6.46388         0.048887     -0.042028     -0.010862
Pd      9.73138     11.67416      6.29944         0.063048     -0.057145      0.046361
Ir     11.37180      9.08689     13.48682        -0.000095      0.007115     -0.038732
Ir     13.07767      9.39622     10.42864        -0.018363      0.037242     -0.016012
Ir     10.53520     12.36225     12.70845         0.023581      0.005190      0.017024
Ir      7.04822     10.97483      9.57070         0.021429     -0.027956      0.015263
Ir      8.26590     12.44748      8.21067         0.065618      0.015087     -0.008774
Ir      8.09680      9.34190     11.15576        -0.046601      0.001735     -0.027623
