152
# total energy = -1022.83805985 eVH     10.35389      5.87395      7.64558         0.477255      0.029927      0.917191
H     10.62451     15.10445      7.64558        -0.041025      0.036605      0.759399
H     10.62451      5.87395     13.33282         0.142329      0.116354     -0.602886
H     10.35389     15.10445     13.33282        -0.267643     -0.076409     -0.566776
H      7.64558     10.35389      5.87395         0.335452     -0.038287      0.191254
H      7.64558     10.62451     15.10445         0.615761     -0.185739     -0.140673
H     13.33282     10.62451      5.87395        -0.863346     -0.327863      0.165530
H     13.33282     10.35389     15.10445        -0.469226     -0.094343     -0.056357
H      5.87395      7.64558     10.35389         0.121501      1.131550     -0.141620
H     15.10445      7.64558     10.62451        -0.168128      0.402520     -0.086209
H      5.87395     13.33282     10.62451         0.143599     -0.407094     -0.071101
H     15.10445     13.33282     10.35389        -0.077378     -0.966783     -0.203645
H      5.87395     10.35389      7.64558         0.129791      0.037230      0.482736
H     15.10445     10.62451      7.64558         0.131671     -0.221080      0.798815
H      5.87395     10.62451     13.33282         0.270495     -0.028660     -0.395183
H     15.10445     10.35389     13.33282        -0.144331      0.009747     -0.629007
H     10.35389      7.64558      5.87395         0.073276      0.835143      0.118166
H     10.62451      7.64558     15.10445         0.028464      0.557115     -0.143158
H     10.62451     13.33282      5.87395         0.076017     -0.602167      0.183020
H     10.35389     13.33282     15.10445        -0.250937     -0.891375     -0.110491
H      7.64558      5.87395     10.35389         0.529402      0.035736     -0.140317
H      7.64558     15.10445     10.62451         0.908512     -0.210710      0.304167
H     13.33282      5.87395     10.62451        -0.435383      0.187378     -0.059003
H     13.33282     15.10445     10.35389        -1.001395     -0.099683      0.242487
H     12.45634     12.45634     19.01126         0.267633      0.257782     -0.223956
H     19.01126     19.01126     19.01126        -0.247560     -0.234963     -0.262536
H     19.01126     12.45634     12.45634        -0.241551      0.270383      0.238698
H     12.45634     19.01126     12.45634         0.210765     -0.283612      0.252881
C     10.35284      5.61067      6.59456        -0.129742     -0.427100     -0.431486
C     10.62556     15.36773      6.59456         0.020431      0.347723     -1.139111
C     10.62556      5.61067     14.38384        -0.024251     -0.222680      0.719640
C     10.35284     15.36773     14.38384         0.193037      0.770918      0.129839
C      6.59456     10.35284      5.61067        -0.427359     -0.041345     -0.185684
C      6.59456     10.62556     15.36773        -0.786737      0.147370      0.350025
C     14.38384     10.62556      5.61067         0.653419      0.279193     -0.365609
C     14.38384     10.35284     15.36773         0.745619     -0.123842      0.431988
C      5.61067      6.59456     10.35284        -0.428316     -0.772826      0.265134
C     15.36773      6.59456     10.62556         0.194982     -0.469166      0.046621
C      5.61067     14.38384     10.62556        -0.254911      0.382655     -0.022795
C     15.36773     14.38384     10.35284         0.400465      0.147223      0.193451
C      5.61067     10.35284      6.59456        -0.307829     -0.011965     -0.891793
C     15.36773     10.62556      6.59456         0.564280     -0.144415     -1.233893
C      5.61067     10.62556     14.38384        -0.464637      0.007487      0.908524
C     15.36773     10.35284     14.38384         0.532485     -0.177546      1.254530
C     10.35284      6.59456      5.61067        -0.033680     -0.916078     -0.680475
C     10.62556      6.59456     15.36773         0.042514     -0.665326      0.300322
C     10.62556     14.38384      5.61067         0.040812      1.264887     -0.695258
C     10.35284     14.38384     15.36773         0.090351      0.595312      0.667191
C      6.59456      5.61067     10.35284        -0.230357     -0.895007      0.127866
C      6.59456     15.36773     10.62556        -1.730933      0.496518      0.042048
C     14.38384      5.61067     10.62556         0.577924     -0.221967     -0.006816
C     14.38384     15.36773     10.35284         0.177262      0.549245     -0.243456
C     10.40319      3.19606      7.29314         0.017329      0.928356     -0.254108
C     10.35913      4.25547      6.23373        -0.052578     -0.361267      0.628020
C      0.08601      7.29314      7.29314        -0.008986     -0.236193     -0.470978
C      0.13007      6.23373      6.23373         0.000683      0.115768      0.204529
C      0.08601      3.19606      3.19606        -0.016799      0.652160      0.178889
C      0.13007      4.25547      4.25547        -0.090466     -0.197724     -0.170876
C     10.40319      7.29314      3.19606        -0.000533     -0.693765      0.526006
C     10.35913      6.23373      4.25547        -0.004911      0.528389     -0.380836
C      7.29314     10.40319      3.19606        -0.349491      0.022722      0.851170
C      6.23373     10.35913      4.25547         0.213590      0.015754     -0.145169
C      7.29314      0.08601      7.29314        -0.309294     -0.046712     -0.268931
C      6.23373      0.13007      6.23373         0.264594     -0.059419      0.293795
C      3.19606      0.08601      3.19606         0.433744     -0.052619      1.304603
C      4.25547      0.13007      4.25547        -0.117307     -0.027497     -0.459698
C      3.19606     10.40319      7.29314         0.715704      0.015160     -0.262901
C      4.25547     10.35913      6.23373        -0.137740      0.035179      0.110871
C      3.19606      7.29314     10.40319         0.599503     -1.261854      0.026929
C      4.25547      6.23373     10.35913        -0.718455      0.831799      0.047926
C      7.29314      7.29314      0.08601        -0.660666     -0.170501     -0.022682
C      6.23373      6.23373      0.13007         0.172846      0.269070     -0.009717
C      3.19606      3.19606      0.08601         0.241696      0.251459     -0.019626
C      4.25547      4.25547      0.13007        -0.051801     -0.037296      0.012357
C      7.29314      3.19606     10.40319        -0.372904      0.784059      0.016588
C      6.23373      4.25547     10.35913         0.868467     -0.164874      0.012963
O     10.43466      3.58206      8.50569        -0.050494      0.027710      0.314705
O     10.54374     17.39634      8.50569        -0.024221     -0.182831      0.605064
O     10.54374      3.58206     12.47271         0.055581      0.060212     -0.321671
O     10.43466     17.39634     12.47271        -0.024683     -0.123407     -0.579247
O      8.50569     10.43466      3.58206         0.386214     -0.023103     -0.011087
O      8.50569     10.54374     17.39634         0.470348      0.053829     -0.142506
O     12.47271     10.54374      3.58206        -0.281521      0.050065     -0.080601
O     12.47271     10.43466     17.39634        -0.857530      0.021727     -0.223470
O      3.58206      8.50569     10.43466         0.040479      0.914363      0.038674
O     17.39634      8.50569     10.54374        -0.038121      0.337617      0.078326
O      3.58206     12.47271     10.54374         0.064029     -0.420354      0.063377
O     17.39634     12.47271     10.43466        -0.169559     -0.771317      0.018926
O      3.58206     10.43466      8.50569        -0.057452     -0.066265      0.222514
O     17.39634     10.54374      8.50569        -0.136018      0.042294      0.458104
O      3.58206     10.54374     12.47271        -0.023186     -0.051106     -0.892507
O     17.39634     10.43466     12.47271        -0.197851      0.041778     -0.761341
O     10.43466      8.50569      3.58206         0.044407      0.686893      0.193182
O     10.54374      8.50569     17.39634         0.054049      0.430408     -0.077896
O     10.54374     12.47271      3.58206        -0.010170     -0.732619      0.228670
O     10.43466     12.47271     17.39634         0.051365     -0.861946     -0.276602
O      8.50569      3.58206     10.43466         0.494104      0.078360     -0.039038
O      8.50569     17.39634     10.54374         0.657763     -0.253510     -0.061778
O     12.47271      3.58206     10.54374        -0.487382      0.163328      0.039783
O     12.47271     17.39634     10.43466        -0.525120     -0.038847     -0.030738
O     11.90042     11.90042     19.56718        -0.304513     -0.311804      0.262950
O     19.56718     19.56718     19.56718         0.287460      0.271761      0.321163
O     19.56718     11.90042     11.90042         0.280453     -0.330318     -0.243997
O     11.90042     19.56718     11.90042        -0.227893      0.291367     -0.240859
O      9.45224      1.03696      9.45224        -0.074394      0.050112     -0.066415
O      1.03696      9.45224      9.45224         0.057225     -0.145283     -0.056485
O      1.03696      1.03696      1.03696         0.043625      0.032839      0.187826
O      9.45224      9.45224      1.03696        -0.039468     -0.091642      0.122990
Zr     10.48920      2.52580     10.48920        -0.007259     -0.074868     -0.022152
Zr     10.48920     18.45260     10.48920         0.059537      0.306034     -0.070805
Zr     10.48920     10.48920      2.52580        -0.100542      0.009671     -0.374774
Zr     10.48920     10.48920     18.45260        -0.139608     -0.164725      0.327631
Zr      2.52580     10.48920     10.48920        -0.347115      0.317083     -0.467022
Zr     18.45260     10.48920     10.48920         0.237388      0.038976     -0.263796
Pd      9.04422     10.27074     13.34483        -0.011451     -0.004118     -0.003375
Pd     10.58149      9.72553     10.99747         0.009979      0.002259     -0.067509
Pd     13.76277      8.55414     12.67994         0.033830     -0.003667      0.007530
Pd     11.00030     11.08444     15.04261        -0.001690     -0.035031     -0.054056
Pd     12.86711     11.20127     13.04829         0.026099      0.023235     -0.000306
Pd     14.97615     10.93236     11.34450         0.001525      0.020567     -0.008436
Pd      6.66509      7.43508     12.33554        -0.006147      0.020378      0.008782
Pd      9.21745      7.26683     10.14339         0.002821      0.013369     -0.022941
Pd      9.27510      7.62386     12.80901         0.004231     -0.006524     -0.013172
Pd     11.69844      7.29635     11.46882         0.003563      0.004997     -0.010431
Pd     11.37441      7.99855      8.85992         0.036502     -0.004133      0.006508
Pd      7.26061     11.84020     11.96613         0.003171     -0.000222     -0.024208
Pd      8.90631     14.67800      9.34067         0.038681      0.030301      0.021417
Pd      8.41613     12.66951     14.33152         0.008978     -0.017674     -0.035737
Pd     13.50836     14.07561      8.56627         0.094490      0.039500     -0.040193
Pd     10.97424     13.32845      8.52176         0.085978      0.033743      0.035591
Pd     14.08112     11.50896      8.92405         0.001104      0.049508     -0.007545
Pd      8.62986     14.11134     12.10375         0.023165     -0.023758      0.011400
Pd     12.24509     13.75512     14.02900        -0.025127     -0.015908     -0.013241
Pd     11.17267     14.42416     11.14547         0.016103     -0.018547      0.062267
Pd     14.05790     13.55752     12.17098        -0.010889      0.019858     -0.002993
Pd     12.31303     12.13076     10.68568        -0.007608     -0.009218      0.009052
Pd     12.64364     12.30851      6.71564         0.030406      0.062548     -0.004345
Pd     13.63686      8.93198      7.91870         0.054593     -0.000608     -0.033560
Pd      6.85926      8.46775      8.86222         0.018842      0.022036     -0.005645
Pd      5.52640      9.93322     11.27258         0.009829      0.043519     -0.054177
Pd      9.12984      9.76219      8.29874         0.023120     -0.031923     -0.004364
Pd      8.83101      7.24740      7.48558        -0.024000     -0.014030     -0.044115
Pd      9.52484     12.08228     10.43460         0.028285      0.005691      0.020549
Pd     11.51920     10.70713      8.58202         0.018524      0.022245     -0.020862
Pd     11.22369      9.25915      6.43905         0.038403     -0.048375     -0.043622
Pd      9.88074     11.56848      6.37266         0.038008     -0.031462     -0.025232
Ir     11.36319      9.12139     13.37210        -0.026042      0.008717     -0.009084
Ir     13.07066      9.47907     10.38688        -0.004986     -0.041662      0.029322
Ir     10.54051     12.35924     12.71870        -0.022621      0.012161      0.025735
Ir      7.13745     10.99099      9.51041         0.015307     -0.000274      0.018043
Ir      8.40808     12.46553      8.19342         0.006635      0.012026     -0.009228
Ir      8.06541      9.31405     11.12375         0.003389     -0.000128      0.011740
