152
# total energy = -1023.20761297 eVH     10.35389      5.87395      7.64558         0.489828      0.082187      0.714102
H     10.62451     15.10445      7.64558        -0.118279     -0.040404      0.820719
H     10.62451      5.87395     13.33282         0.143974      0.126354     -0.633432
H     10.35389     15.10445     13.33282        -0.162359     -0.124557     -0.539103
H      7.64558     10.35389      5.87395         0.311987     -0.021911      0.192880
H      7.64558     10.62451     15.10445         0.642398     -0.217394     -0.141062
H     13.33282     10.62451      5.87395        -0.772469     -0.160497      0.205230
H     13.33282     10.35389     15.10445        -0.421924     -0.098733     -0.067068
H      5.87395      7.64558     10.35389         0.208010      1.107481     -0.278743
H     15.10445      7.64558     10.62451        -0.175384      0.477024     -0.125524
H      5.87395     13.33282     10.62451         0.160728     -0.419780     -0.061882
H     15.10445     13.33282     10.35389        -0.130839     -0.908247      0.016759
H      5.87395     10.35389      7.64558         0.135129      0.096015      0.461024
H     15.10445     10.62451      7.64558         0.103011     -0.035512      1.064987
H      5.87395     10.62451     13.33282         0.197844     -0.030908     -0.384840
H     15.10445     10.35389     13.33282        -0.125879     -0.048490     -0.532576
H     10.35389      7.64558      5.87395         0.133307      0.885181      0.186385
H     10.62451      7.64558     15.10445        -0.012829      0.550644     -0.159362
H     10.62451     13.33282      5.87395        -0.016795     -0.587606      0.219560
H     10.35389     13.33282     15.10445        -0.283127     -0.892540     -0.129086
H      7.64558      5.87395     10.35389         0.445454      0.096181     -0.054216
H      7.64558     15.10445     10.62451         0.849553     -0.277882      0.034767
H     13.33282      5.87395     10.62451        -0.453937      0.187043     -0.065231
H     13.33282     15.10445     10.35389        -0.661224     -0.100474      0.165428
H     12.45634     12.45634     19.01126         0.253811      0.264262     -0.228922
H     19.01126     19.01126     19.01126        -0.251082     -0.230661     -0.260871
H     19.01126     12.45634     12.45634        -0.234423      0.273014      0.241992
H     12.45634     19.01126     12.45634         0.225843     -0.263635      0.250823
C     10.35284      5.61067      6.59456        -0.190493     -0.355078     -0.034944
C     10.62556     15.36773      6.59456         0.073318      0.368264     -1.240108
C     10.62556      5.61067     14.38384        -0.055597     -0.255442      0.806507
C     10.35284     15.36773     14.38384         0.043009      0.890097      0.425632
C      6.59456     10.35284      5.61067        -0.364614     -0.035443     -0.168682
C      6.59456     10.62556     15.36773        -0.823879      0.192386      0.365995
C     14.38384     10.62556      5.61067         0.464821      0.304098     -0.501062
C     14.38384     10.35284     15.36773         0.773865     -0.110057      0.446643
C      5.61067      6.59456     10.35284        -0.316526     -0.653217      0.428751
C     15.36773      6.59456     10.62556         0.169480     -0.514293      0.087302
C      5.61067     14.38384     10.62556        -0.144401      0.384637     -0.021745
C     15.36773     14.38384     10.35284         0.398795     -0.034724     -0.095677
C      5.61067     10.35284      6.59456        -0.258643     -0.020400     -0.781965
C     15.36773     10.62556      6.59456         0.607364     -0.263370     -1.346140
C      5.61067     10.62556     14.38384        -0.338012     -0.000713      0.434929
C     15.36773     10.35284     14.38384         0.488557     -0.163006      1.117959
C     10.35284      6.59456      5.61067        -0.159245     -0.495785     -0.425042
C     10.62556      6.59456     15.36773         0.059488     -0.662362      0.274703
C     10.62556     14.38384      5.61067         0.099491      0.995243     -0.496735
C     10.35284     14.38384     15.36773         0.258485      0.606346      0.533558
C      6.59456      5.61067     10.35284        -0.098466     -0.818134      0.076740
C      6.59456     15.36773     10.62556        -1.530287      0.416644      0.110678
C     14.38384      5.61067     10.62556         0.641825     -0.276849     -0.017716
C     14.38384     15.36773     10.35284        -0.426934      0.677502     -0.309402
C     10.40319      3.19606      7.29314         0.007783      0.828799     -0.288767
C     10.35913      4.25547      6.23373        -0.056653     -0.464129      0.499658
C      0.08601      7.29314      7.29314        -0.005921     -0.253887     -0.512949
C      0.13007      6.23373      6.23373         0.034704      0.154596      0.215877
C      0.08601      3.19606      3.19606        -0.010568      0.621345      0.197230
C      0.13007      4.25547      4.25547        -0.093125     -0.178307     -0.194309
C     10.40319      7.29314      3.19606        -0.007279     -0.637026      0.565155
C     10.35913      6.23373      4.25547        -0.047650      0.264438     -0.610832
C      7.29314     10.40319      3.19606        -0.315407      0.026599      0.945597
C      6.23373     10.35913      4.25547         0.168596      0.029622     -0.125992
C      7.29314      0.08601      7.29314        -0.302349     -0.036675     -0.298969
C      6.23373      0.13007      6.23373         0.329875     -0.049725      0.320628
C      3.19606      0.08601      3.19606         0.520665     -0.032248      0.718328
C      4.25547      0.13007      4.25547        -0.091053     -0.029470     -0.370610
C      3.19606     10.40319      7.29314         0.727139      0.001527     -0.401172
C      4.25547     10.35913      6.23373        -0.152748      0.027883      0.080701
C      3.19606      7.29314     10.40319         0.684184     -1.279680     -0.008923
C      4.25547      6.23373     10.35913        -0.657500      0.920050      0.083736
C      7.29314      7.29314      0.08601        -0.687212     -0.179288     -0.017988
C      6.23373      6.23373      0.13007         0.219630      0.207388      0.019581
C      3.19606      3.19606      0.08601         0.268878      0.294868     -0.019953
C      4.25547      4.25547      0.13007        -0.072532     -0.037807     -0.001724
C      7.29314      3.19606     10.40319        -0.361298      1.020674      0.018123
C      6.23373      4.25547     10.35913         1.064806     -0.031371      0.015179
O     10.43466      3.58206      8.50569        -0.042854      0.051326      0.384914
O     10.54374     17.39634      8.50569        -0.040473     -0.173076      0.589924
O     10.54374      3.58206     12.47271         0.050813      0.070647     -0.319559
O     10.43466     17.39634     12.47271        -0.007574     -0.141090     -0.631521
O      8.50569     10.43466      3.58206         0.345777     -0.029844     -0.031824
O      8.50569     10.54374     17.39634         0.468791      0.045430     -0.143386
O     12.47271     10.54374      3.58206        -0.471774      0.013429      0.080424
O     12.47271     10.43466     17.39634        -0.811675      0.004386     -0.195410
O      3.58206      8.50569     10.43466         0.107580      1.038553      0.017821
O     17.39634      8.50569     10.54374        -0.030399      0.308835      0.075390
O      3.58206     12.47271     10.54374         0.074065     -0.461074      0.052751
O     17.39634     12.47271     10.43466        -0.176448     -0.903492      0.060460
O      3.58206     10.43466      8.50569        -0.065270     -0.068256      0.322100
O     17.39634     10.54374      8.50569        -0.131255      0.042153      0.463772
O      3.58206     10.54374     12.47271         0.094250     -0.024904     -0.647699
O     17.39634     10.43466     12.47271        -0.183911      0.056844     -0.790056
O     10.43466      8.50569      3.58206         0.027811      0.637541      0.156341
O     10.54374      8.50569     17.39634         0.061971      0.437629     -0.081488
O     10.54374     12.47271      3.58206        -0.007217     -0.714355      0.227338
O     10.43466     12.47271     17.39634         0.034863     -0.836473     -0.237218
O      8.50569      3.58206     10.43466         0.438121      0.018334     -0.040231
O      8.50569     17.39634     10.54374         0.695024     -0.263305     -0.062978
O     12.47271      3.58206     10.54374        -0.461341      0.153672      0.042938
O     12.47271     17.39634     10.43466        -0.563223     -0.025584     -0.004646
O     11.90042     11.90042     19.56718        -0.294080     -0.312413      0.257859
O     19.56718     19.56718     19.56718         0.283916      0.262476      0.312904
O     19.56718     11.90042     11.90042         0.260337     -0.321307     -0.245085
O     11.90042     19.56718     11.90042        -0.271209      0.277831     -0.264726
O      9.45224      1.03696      9.45224        -0.082363      0.043253     -0.068964
O      1.03696      9.45224      9.45224         0.014670     -0.170265     -0.095452
O      1.03696      1.03696      1.03696         0.003719      0.069702      0.179665
O      9.45224      9.45224      1.03696        -0.061420     -0.102411      0.107319
Zr     10.48920      2.52580     10.48920         0.004101     -0.096240     -0.047141
Zr     10.48920     18.45260     10.48920         0.133420      0.361955     -0.002200
Zr     10.48920     10.48920      2.52580         0.010096     -0.023103     -0.378372
Zr     10.48920     10.48920     18.45260        -0.154394     -0.056719      0.366700
Zr      2.52580     10.48920     10.48920        -0.327512      0.241380     -0.135577
Zr     18.45260     10.48920     10.48920         0.279771     -0.017280     -0.280962
Pd      9.01184     10.13767     13.30394        -0.096320     -0.031354      0.048462
Pd     10.69525      9.71817     10.88924        -0.025916     -0.036269     -0.181147
Pd     13.73662      8.38041     12.57006        -0.024596      0.068914      0.022958
Pd     11.02157     10.92058     14.96301        -0.051857     -0.033707      0.022261
Pd     12.89745     11.00521     12.93624         0.059546      0.082402      0.108267
Pd     15.10998     11.11163     11.31384        -0.034581     -0.047027     -0.005529
Pd      6.59974      7.70101     12.31270        -0.003940      0.032396      0.026481
Pd      9.31793      7.29472      9.87742        -0.004475      0.006369     -0.033640
Pd      9.22467      7.47915     12.63737         0.011542     -0.008640     -0.024762
Pd     11.63339      7.15404     11.42777         0.011417      0.015889     -0.026766
Pd     11.69461      8.01304      8.92575         0.012342     -0.067661     -0.073114
Pd      7.38528     11.78092     11.78334        -0.034783     -0.011373     -0.016989
Pd      9.19496     14.77118      9.43622         0.002781     -0.050079      0.008342
Pd      8.41404     12.55716     14.25215        -0.030795     -0.005309      0.012722
Pd     14.09005     14.25432      8.31314         0.006972     -0.009139      0.006874
Pd     11.49278     13.65670      8.71593         0.032300     -0.031967      0.051684
Pd     14.16907     11.69554      8.88691        -0.036596     -0.009070      0.028207
Pd      8.72164     14.04164     12.06329         0.002111     -0.016270      0.019045
Pd     12.28100     13.48604     14.14446        -0.020559      0.058088     -0.017181
Pd     11.33988     14.44428     11.43521         0.015893     -0.059119      0.010237
Pd     14.08361     13.60424     12.27556        -0.008041     -0.016632     -0.017358
Pd     12.43150     12.19183     10.71672        -0.032355     -0.111617      0.042175
Pd     12.75214     12.51777      6.68153        -0.002369      0.021917      0.003520
Pd     13.93021      9.00479      8.00770         0.016815     -0.008481     -0.045633
Pd      6.93935      8.50220      8.76614        -0.000258     -0.008592     -0.013325
Pd      5.62521     10.10747     10.73219         0.009807     -0.004206     -0.070278
Pd      9.39720      9.47580      8.13689        -0.007449     -0.037543     -0.091436
Pd      8.57880      7.04266      7.24635        -0.029365     -0.042221     -0.024500
Pd      9.76471     12.14259     10.33944         0.009957     -0.053733      0.117485
Pd     11.64030     10.81908      8.50418        -0.007067     -0.011791     -0.035813
Pd     11.57869      9.09894      6.48449         0.016210     -0.004819     -0.045487
Pd     10.08137     11.35306      6.34386         0.024873     -0.025124     -0.130269
Ir     11.30713      8.98107     13.24645        -0.032548      0.059845     -0.054150
Ir     13.22162      9.63294     10.39834         0.004907     -0.011078     -0.032701
Ir     10.56040     12.23605     12.72397        -0.007732     -0.028557      0.009498
Ir      7.59252     11.01045      9.25625        -0.010929     -0.053166      0.026938
Ir      8.82098     12.62382      8.07544         0.066598      0.037072     -0.011598
Ir      8.19653      9.31170     11.00741        -0.022935      0.006791     -0.018125
