152
# total energy = -1002.35310167 eVH     10.35389      5.87395      7.64558         0.101605      0.062990      1.346793
H     10.62451     15.10445      7.64558         0.024287     -0.031371      1.071946
H     10.62451      5.87395     13.33282         0.268732      0.034441     -1.271238
H     10.35389     15.10445     13.33282        -0.230153     -0.157087     -1.021498
H      7.64558     10.35389      5.87395         0.986803      0.459580     -0.316623
H      7.64558     10.62451     15.10445         0.671903      0.218768      0.060339
H     13.33282     10.62451      5.87395        -0.988024      0.366564     -0.064788
H     13.33282     10.35389     15.10445        -0.631614     -0.097522      0.016936
H      5.87395      7.64558     10.35389        -0.385410      2.122812      0.361575
H     15.10445      7.64558     10.62451         0.113517      1.544288      0.008456
H      5.87395     13.33282     10.62451        -0.152214     -1.126399     -0.382290
H     15.10445     13.33282     10.35389         0.137911     -1.230005     -0.345314
H      5.87395     10.35389      7.64558        -0.989375      0.382035      1.414700
H     15.10445     10.62451      7.64558         0.381359      0.522515      1.419454
H      5.87395     10.62451     13.33282        -1.005569      0.520004     -1.331429
H     15.10445     10.35389     13.33282         0.934314     -0.062411     -1.131352
H     10.35389      7.64558      5.87395         0.399533      1.157136     -0.142307
H     10.62451      7.64558     15.10445         0.248201      0.619341     -0.089954
H     10.62451     13.33282      5.87395        -0.546405     -1.185354     -0.133111
H     10.35389     13.33282     15.10445        -0.116029     -0.485818     -0.146616
H      7.64558      5.87395     10.35389         0.698803     -0.124407      0.019733
H      7.64558     15.10445     10.62451         0.577173     -0.140413     -0.130937
H     13.33282      5.87395     10.62451        -0.854999      0.065435      0.075380
H     13.33282     15.10445     10.35389        -0.439039     -0.083295     -0.067568
H     12.45634     12.45634     19.01126         0.255639      0.234805     -0.250078
H     19.01126     19.01126     19.01126        -0.252102     -0.248722     -0.241685
H     19.01126     12.45634     12.45634        -0.260355      0.267070      0.229863
H     12.45634     19.01126     12.45634         0.265263     -0.270500      0.221556
C     10.35284      5.61067      6.59456        -0.066542     -1.003479     -1.219575
C     10.62556     15.36773      6.59456        -0.158745      0.585644     -0.892321
C     10.62556      5.61067     14.38384        -0.271415     -0.471109      1.592525
C     10.35284     15.36773     14.38384         0.194304      0.267210      1.033466
C      6.59456     10.35284      5.61067        -1.953334      0.183146     -1.251606
C      6.59456     10.62556     15.36773        -1.034022      0.172380      0.800033
C     14.38384     10.62556      5.61067         1.699239      0.149982     -0.931598
C     14.38384     10.35284     15.36773         1.033620     -0.005067      0.629031
C      5.61067      6.59456     10.35284        -0.605842     -1.590981      0.009150
C     15.36773      6.59456     10.62556         0.444282     -0.791013      0.003040
C      5.61067     14.38384     10.62556        -0.242762      1.166787      0.092927
C     15.36773     14.38384     10.35284         0.260806      1.364422      0.058447
C      5.61067     10.35284      6.59456        -0.526467      0.018660     -1.791555
C     15.36773     10.62556      6.59456         0.500897      0.132543     -1.289941
C      5.61067     10.62556     14.38384        -0.094966     -0.064572      1.714825
C     15.36773     10.35284     14.38384         0.051308     -0.019509      1.628444
C     10.35284      6.59456      5.61067         0.026761     -1.206614     -0.803873
C     10.62556      6.59456     15.36773         0.120323     -0.538512      0.608993
C     10.62556     14.38384      5.61067         0.139655      1.098744     -0.586744
C     10.35284     14.38384     15.36773        -0.037295      0.450835      0.444105
C      6.59456      5.61067     10.35284        -0.437921     -1.142109      0.003063
C      6.59456     15.36773     10.62556        -0.803891      0.740070     -0.039332
C     14.38384      5.61067     10.62556         0.632258     -0.802074     -0.163883
C     14.38384     15.36773     10.35284         0.420873      0.600423     -0.038661
C     10.40319      3.19606      7.29314        -0.028919      0.281107     -0.743438
C     10.35913      4.25547      6.23373        -0.053457     -0.585416      0.152023
C      0.08601      7.29314      7.29314        -0.006566     -0.396346     -0.325305
C      0.13007      6.23373      6.23373        -0.009833      0.397784      0.271176
C      0.08601      3.19606      3.19606         0.020368      0.497149      0.551630
C      0.13007      4.25547      4.25547         0.008873     -0.494276     -0.467140
C     10.40319      7.29314      3.19606        -0.057981     -0.869238      0.278361
C     10.35913      6.23373      4.25547         0.002815      0.325284     -0.629841
C      7.29314     10.40319      3.19606        -0.776354     -0.022756      0.089786
C      6.23373     10.35913      4.25547         0.357031     -0.040737     -0.415195
C      7.29314      0.08601      7.29314        -0.418969     -0.050359     -0.264423
C      6.23373      0.13007      6.23373         0.449589     -0.156835      0.318099
C      3.19606      0.08601      3.19606         0.938646     -0.018394      0.210058
C      4.25547      0.13007      4.25547        -0.465822     -0.212879     -0.541048
C      3.19606     10.40319      7.29314         0.294340     -0.005231     -0.214123
C      4.25547     10.35913      6.23373        -0.279052     -0.033082      0.374146
C      3.19606      7.29314     10.40319         0.265160     -0.426940      0.008319
C      4.25547      6.23373     10.35913        -0.828344      0.130940      0.073618
C      7.29314      7.29314      0.08601        -0.416742     -0.349281      0.002839
C      6.23373      6.23373      0.13007         0.735535      0.114016      0.013937
C      3.19606      3.19606      0.08601         0.758748      0.319968      0.007935
C      4.25547      4.25547      0.13007        -0.382105     -0.614279     -0.024722
C      7.29314      3.19606     10.40319        -0.324713      0.393527      0.019412
C      6.23373      4.25547     10.35913         0.428849     -0.427106      0.066329
O     10.43466      3.58206      8.50569         0.081700      0.223012      0.670816
O     10.54374     17.39634      8.50569         0.016403     -0.163737      0.444565
O     10.54374      3.58206     12.47271         0.098868      0.157139     -0.535199
O     10.43466     17.39634     12.47271        -0.024887     -0.073050     -0.354413
O      8.50569     10.43466      3.58206         0.677902     -0.123598      0.232178
O      8.50569     10.54374     17.39634         0.566063     -0.003737     -0.228485
O     12.47271     10.54374      3.58206        -0.824414      0.068414      0.279039
O     12.47271     10.43466     17.39634        -0.474210      0.005296     -0.212487
O      3.58206      8.50569     10.43466         0.170686      0.574598     -0.021332
O     17.39634      8.50569     10.54374        -0.151231      0.487528      0.038987
O      3.58206     12.47271     10.54374         0.077512     -0.393316      0.028510
O     17.39634     12.47271     10.43466        -0.175132     -0.514428     -0.027572
O      3.58206     10.43466      8.50569         0.173277     -0.020001      0.371337
O     17.39634     10.54374      8.50569        -0.146207      0.058359      0.390910
O      3.58206     10.54374     12.47271         0.006559      0.048059     -0.204789
O     17.39634     10.43466     12.47271        -0.051830     -0.009343     -0.190478
O     10.43466      8.50569      3.58206        -0.094658      0.724565      0.161112
O     10.54374      8.50569     17.39634        -0.000199      0.553534     -0.189681
O     10.54374     12.47271      3.58206         0.035278     -0.507210      0.064331
O     10.43466     12.47271     17.39634        -0.023623     -0.404023     -0.079432
O      8.50569      3.58206     10.43466         0.559463      0.137026     -0.034617
O      8.50569     17.39634     10.54374         0.586029     -0.188043      0.045715
O     12.47271      3.58206     10.54374        -0.746429      0.191310      0.033092
O     12.47271     17.39634     10.43466        -0.508828     -0.139039     -0.023832
O     11.90042     11.90042     19.56718        -0.295938     -0.252444      0.292464
O     19.56718     19.56718     19.56718         0.299609      0.307144      0.289264
O     19.56718     11.90042     11.90042         0.317302     -0.302707     -0.221881
O     11.90042     19.56718     11.90042        -0.309547      0.330983     -0.202069
O      9.45224      1.03696      9.45224        -0.022227      0.100229     -0.050907
O      1.03696      9.45224      9.45224         0.056837     -0.020654     -0.058445
O      1.03696      1.03696      1.03696         0.048184      0.093873      0.115260
O      9.45224      9.45224      1.03696        -0.052137     -0.030804      0.143995
Zr     10.48920      2.52580     10.48920        -0.195260     -0.291402     -0.008597
Zr     10.48920     18.45260     10.48920         0.081987      0.092085     -0.097054
Zr     10.48920     10.48920      2.52580        -0.023753      0.055790     -0.385391
Zr     10.48920     10.48920     18.45260        -0.004633     -0.060692      0.198680
Zr      2.52580     10.48920     10.48920        -0.100106     -0.114998     -0.089264
Zr     18.45260     10.48920     10.48920         0.090581     -0.006409     -0.098301
Pd     11.77504      8.59058     10.24756         0.222691      0.015332      0.129981
Pd      7.03281     10.18455     10.33439         0.187368     -0.038374     -0.015549
Pd      7.22956     12.63371     11.72189         0.020243     -0.190937     -0.038349
Pd     11.89444     13.26278      7.32725         0.087467      0.046493     -0.048525
Pd     11.37071      8.31433      7.44642         0.253463      0.069359      0.130902
Pd      8.79891      7.10656      7.37782        -0.051251      0.166863     -0.025921
Pd     11.45297     10.92589      5.95310         0.127961     -0.021100      0.286532
Pd     13.50705      9.65225      7.63651         0.019616     -0.171711     -0.071882
Pd      9.33526     11.82933      7.30700         0.132455      0.077332      0.077325
Pd      7.06159      7.79100     11.79640         0.198117      0.048474      0.032720
Pd      6.83201      7.73219      8.83035         0.022715     -0.097974      0.092311
Pd      7.46077     10.13564     12.90346        -0.007703     -0.152808     -0.069811
Pd     11.54023      6.12013      9.04091         0.005317      0.048246      0.064432
Pd      9.32663      9.39745      5.90882         0.164423      0.162787      0.023509
Pd      9.25066     14.13061      8.70723         0.019808     -0.091699      0.076421
Pd     11.51049      6.27968     11.69038         0.036547      0.163852      0.064498
Pd      9.58865      9.30458      9.00011        -0.032630      0.018869     -0.052027
Pd      9.23579     11.79712     10.08316         0.071147      0.013466      0.182169
Pd      9.34136      7.05465     10.27752        -0.082396      0.037320      0.011816
Pd      9.19298      7.18056     13.14239        -0.079026      0.182669     -0.057149
Pd      9.45723      9.43615     11.56406         0.085498     -0.060277      0.172341
Pd     11.52717     11.02491      8.75655         0.240455     -0.169269      0.010115
Pd      7.02260     12.54763      8.75538         0.150937     -0.136296      0.182157
Pd      7.56144      9.94677      7.82928        -0.066084      0.088976      0.227081
Pd     13.91400      7.44985      8.92748        -0.139022     -0.179967      0.140127
Pd     13.78484      7.87031     12.02411        -0.018248     -0.004515     -0.043989
Pd      9.42040     11.96241     12.93046         0.070696     -0.090948      0.026417
Pd     13.93180     12.40405      8.73420        -0.069788     -0.133833     -0.010981
Pd     13.46679     10.42788     12.76368        -0.046982      0.051268      0.030562
Pd     13.89973     10.15587     10.20344        -0.016968     -0.186735      0.034420
Pd     11.47318     11.16723     11.40914         0.000724      0.001203      0.006746
Pd     11.54612     13.48472      9.97679         0.114187     -0.100068      0.126156
Pd     13.71464     12.68519     11.43456        -0.112186     -0.076983      0.076594
Pd     11.68300     13.57624     12.83363        -0.037980     -0.130381     -0.029444
Pd     11.52994     11.30840     14.32978         0.018297     -0.003121      0.003921
Pd     11.52200      8.70219     13.03545        -0.085383      0.046149      0.062177
Pd      9.47023      9.57581     14.48944         0.145804      0.000201      0.085139
Pd      9.42392     14.24461     11.39063         0.014745     -0.178081      0.019693
