152
# total energy = -1110.39202097 eVH     10.35389      5.87395      7.64558        -0.385661     -0.130871      1.143992
H     10.62451     15.10445      7.64558         0.329235      0.077808      0.920796
H     10.62451      5.87395     13.33282        -0.319147     -0.676925     -1.340980
H     10.35389     15.10445     13.33282        -0.588043      0.428117     -0.332340
H      7.64558     10.35389      5.87395         0.557679     -0.522194     -0.100649
H      7.64558     10.62451     15.10445         0.385397     -0.234757      0.043666
H     13.33282     10.62451      5.87395        -0.578218      0.646427     -0.047749
H     13.33282     10.35389     15.10445        -0.525445      0.388517      0.154364
H      5.87395      7.64558     10.35389         0.149247      0.555286      0.028233
H     15.10445      7.64558     10.62451         0.428858      1.019211      0.282847
H      5.87395     13.33282     10.62451        -0.221025     -0.502803      0.362094
H     15.10445     13.33282     10.35389         0.027664     -0.299724     -0.379777
H      5.87395     10.35389      7.64558        -0.102485     -0.409630      1.485323
H     15.10445     10.62451      7.64558         0.219375      0.512613      1.325861
H      5.87395     10.62451     13.33282        -0.216844     -0.369980     -1.205223
H     15.10445     10.35389     13.33282         0.610553      0.997511     -1.533019
H     10.35389      7.64558      5.87395        -0.582973      0.529007     -0.173588
H     10.62451      7.64558     15.10445        -0.134455      0.452842      0.158878
H     10.62451     13.33282      5.87395         0.870278     -1.330871     -0.313160
H     10.35389     13.33282     15.10445         0.227038     -0.562572     -0.105354
H      7.64558      5.87395     10.35389         0.719438      0.164270     -0.172402
H      7.64558     15.10445     10.62451         1.980383      0.751297      0.221896
H     13.33282      5.87395     10.62451        -2.656915     -0.907860     -0.510296
H     13.33282     15.10445     10.35389        -0.878542     -0.056362     -0.252608
H     12.45634     12.45634     19.01126         0.271978      0.257903     -0.227330
H     19.01126     19.01126     19.01126        -0.266789     -0.254771     -0.238671
H     19.01126     12.45634     12.45634        -0.284026      0.281722      0.184978
H     12.45634     19.01126     12.45634         0.256438     -0.250636      0.235780
C     10.35284      5.61067      6.59456         0.076381     -0.485590     -1.204810
C     10.62556     15.36773      6.59456         0.190865      0.754225     -0.812054
C     10.62556      5.61067     14.38384         0.181241     -0.296231      1.785902
C     10.35284     15.36773     14.38384         0.086291      0.384342      1.793702
C      6.59456     10.35284      5.61067        -1.138227     -0.110484     -0.894263
C      6.59456     10.62556     15.36773        -0.702050     -0.095357      0.793856
C     14.38384     10.62556      5.61067         0.839287     -0.111346     -0.991405
C     14.38384     10.35284     15.36773         1.179725      0.168373      1.099123
C      5.61067      6.59456     10.35284        -0.668460     -0.899588     -0.187966
C     15.36773      6.59456     10.62556         2.006776     -0.318266     -0.187769
C      5.61067     14.38384     10.62556        -1.568142     -0.012638     -0.141623
C     15.36773     14.38384     10.35284         0.484823      0.088946      0.001135
C      5.61067     10.35284      6.59456        -0.274787      0.211829     -1.352770
C     15.36773     10.62556      6.59456         0.294923     -0.264036     -0.981770
C      5.61067     10.62556     14.38384        -0.255464      0.446195      1.458470
C     15.36773     10.35284     14.38384         0.007387     -0.485060      1.944089
C     10.35284      6.59456      5.61067        -0.160723     -0.849518     -0.697218
C     10.62556      6.59456     15.36773        -0.117920     -0.717801      1.045570
C     10.62556     14.38384      5.61067        -0.501859      1.988653     -0.754688
C     10.35284     14.38384     15.36773        -0.260636      1.362388      0.502240
C      6.59456      5.61067     10.35284        -0.987274     -0.410183      0.093768
C      6.59456     15.36773     10.62556        -1.258608      0.370041     -0.332646
C     14.38384      5.61067     10.62556         1.271293     -1.299274      0.214708
C     14.38384     15.36773     10.35284         0.458052      0.311169      0.085635
C     10.40319      3.19606      7.29314         0.001130      0.304933     -0.110715
C     10.35913      4.25547      6.23373         0.142186     -0.574045      0.015727
C      0.08601      7.29314      7.29314        -0.053397     -0.280619     -0.420089
C      0.13007      6.23373      6.23373        -0.123286      0.671450      0.017743
C      0.08601      3.19606      3.19606        -0.105770      1.661161      0.166030
C      0.13007      4.25547      4.25547        -0.096550     -0.392616     -1.207948
C     10.40319      7.29314      3.19606         0.015819     -0.448538      0.121634
C     10.35913      6.23373      4.25547         0.263994      0.086153     -0.534172
C      7.29314     10.40319      3.19606        -1.695973      0.010898      0.324679
C      6.23373     10.35913      4.25547         0.669253      0.081047     -0.622725
C      7.29314      0.08601      7.29314        -0.410459     -0.015128     -0.316972
C      6.23373      0.13007      6.23373         0.724982     -0.058206      0.246930
C      3.19606      0.08601      3.19606         0.660994     -0.018220      0.180302
C      4.25547      0.13007      4.25547        -0.358190     -0.085255     -0.569245
C      3.19606     10.40319      7.29314         0.351071      0.023286     -0.319199
C      4.25547     10.35913      6.23373        -0.740397      0.077909      0.362862
C      3.19606      7.29314     10.40319         0.285599     -0.202941     -0.006476
C      4.25547      6.23373     10.35913         0.042416      0.634093      0.091708
C      7.29314      7.29314      0.08601        -0.716246     -0.610232     -0.027119
C      6.23373      6.23373      0.13007         0.901565      1.124889     -0.066020
C      3.19606      3.19606      0.08601         0.823757      0.514112      0.001674
C      4.25547      4.25547      0.13007        -0.327497     -1.765874     -0.129943
C      7.29314      3.19606     10.40319        -0.325277      0.271226     -0.004433
C      6.23373      4.25547     10.35913         0.507938     -0.021206      0.230966
O     10.43466      3.58206      8.50569        -0.048605      0.186890      0.259596
O     10.54374     17.39634      8.50569         0.042221     -0.236236      0.486591
O     10.54374      3.58206     12.47271         0.083864     -0.074896     -0.023280
O     10.43466     17.39634     12.47271        -0.023144     -0.141656     -0.268922
O      8.50569     10.43466      3.58206         0.993123      0.189745      0.377524
O      8.50569     10.54374     17.39634         0.579387      0.084479     -0.229506
O     12.47271     10.54374      3.58206        -0.414240     -0.040897      0.182291
O     12.47271     10.43466     17.39634        -0.507067     -0.067630     -0.193064
O      3.58206      8.50569     10.43466         0.184326      0.423717     -0.028737
O     17.39634      8.50569     10.54374        -0.230548      0.713105      0.046218
O      3.58206     12.47271     10.54374         0.162113     -0.682054      0.026283
O     17.39634     12.47271     10.43466        -0.186631     -0.475128     -0.010389
O      3.58206     10.43466      8.50569         0.230735     -0.061583      0.405899
O     17.39634     10.54374      8.50569        -0.171944      0.037357      0.412683
O      3.58206     10.54374     12.47271         0.148207      0.021455     -0.303818
O     17.39634     10.43466     12.47271         0.080994     -0.051619     -0.070838
O     10.43466      8.50569      3.58206         0.004723      0.273432      0.183762
O     10.54374      8.50569     17.39634         0.069617      0.426928     -0.174462
O     10.54374     12.47271      3.58206        -0.222135     -0.974709      0.330613
O     10.43466     12.47271     17.39634        -0.082296     -0.450577     -0.245157
O      8.50569      3.58206     10.43466         0.489323      0.197377     -0.009960
O      8.50569     17.39634     10.54374         0.665113     -0.203285      0.022302
O     12.47271      3.58206     10.54374        -0.747278      0.280555      0.038102
O     12.47271     17.39634     10.43466        -0.432619     -0.205787     -0.043552
O     11.90042     11.90042     19.56718        -0.347234     -0.307209      0.260948
O     19.56718     19.56718     19.56718         0.324178      0.311751      0.284163
O     19.56718     11.90042     11.90042         0.274581     -0.273723     -0.138239
O     11.90042     19.56718     11.90042        -0.305341      0.283210     -0.233055
O      9.45224      1.03696      9.45224        -0.061260      0.073248     -0.045131
O      1.03696      9.45224      9.45224         0.035764     -0.075527     -0.070081
O      1.03696      1.03696      1.03696         0.063454      0.149862      0.095688
O      9.45224      9.45224      1.03696        -0.143175     -0.098312      0.096060
Zr     10.48920      2.52580     10.48920         0.163868     -0.173366     -0.167757
Zr     10.48920     18.45260     10.48920        -0.101423      0.187229     -0.050802
Zr     10.48920     10.48920      2.52580         0.343916     -0.310402     -0.204923
Zr     10.48920     10.48920     18.45260         0.014697     -0.088633      0.200063
Zr      2.52580     10.48920     10.48920        -0.071749      0.179607     -0.052371
Zr     18.45260     10.48920     10.48920         0.146862     -0.132762     -0.252750
Ir     12.03813     12.48362     10.45431         0.004653     -0.000357      0.007555
Ir     11.21825      7.41391     10.24419         0.016873     -0.009113     -0.023029
Ir      8.85725      7.34937     11.52334         0.001050     -0.015737     -0.009833
Ir      7.46171     11.64766      7.65731        -0.009547      0.001117      0.001684
Ir     11.59558     12.07207      7.11228         0.005489      0.002144     -0.001492
Ir     13.78499      8.99335      7.52223         0.007055     -0.001654     -0.012216
Ir     12.47129     13.95273      8.40689        -0.006597     -0.009993     -0.004247
Ir      9.73977     11.25435      5.53933         0.003216     -0.002991     -0.005883
Ir      9.07426     13.44216      7.07710        -0.003036     -0.007631      0.000919
Ir      9.26615      9.67288      7.49936        -0.004238      0.007517     -0.016646
Ir     13.28617      7.03601     11.95936         0.005342     -0.012731     -0.001256
Ir     13.63871      7.04207      9.10718         0.014162      0.002684     -0.003754
Ir     11.04553      7.59070     12.79905        -0.005218     -0.004397     -0.007806
Ir     13.59792     11.56443      8.75073        -0.003808      0.005175     -0.002255
Ir     11.50227      9.62171      6.21863        -0.002672     -0.010984     -0.006585
Ir      7.16183      9.14574      8.91948        -0.008172     -0.006341     -0.011326
Ir     14.06069     11.43963     11.64640        -0.006685      0.009790     -0.003775
Ir     11.66164      9.82576      8.85967        -0.007790     -0.006979     -0.013115
Ir      9.44407      9.49842     10.22436         0.010528      0.020630      0.001857
Ir     13.87965      9.41322     10.16657         0.013346     -0.002832     -0.007289
Ir     13.83766      9.16297     12.87881         0.012572      0.004687     -0.004462
Ir     11.70326      9.75784     11.53755        -0.002368      0.009741     -0.002786
Ir      9.91706     11.72820      8.96169         0.002655     -0.012351      0.003614
Ir      9.11079      7.43422      8.76883         0.010443     -0.013767     -0.029104
Ir     11.63826      7.52221      7.72069         0.027130     -0.017723     -0.015886
Ir      9.25608      9.46565     13.00258         0.004482      0.006021     -0.004192
Ir      7.50534     13.89908      8.99426         0.000043     -0.006367     -0.000294
Ir     10.86275     14.09853     11.95199        -0.004088     -0.009144      0.000633
Ir     10.11048     14.14458      9.51494         0.000298     -0.004116     -0.000337
Ir      9.79036     11.67776     11.72240         0.002523     -0.016875      0.007256
Ir      7.59029     11.56029     10.20581         0.006807     -0.001040     -0.000793
Ir      8.34340     13.73273     11.58175        -0.002154     -0.006479     -0.002440
Ir      7.52525     11.54033     12.82121         0.003355     -0.010228     -0.005908
Ir      9.77866     11.58953     14.34219         0.007072     -0.016850     -0.008467
Ir     13.46443     13.88443     12.18568        -0.007194     -0.008820     -0.002902
Ir     11.98969     12.04243     13.07695        -0.001696     -0.007531     -0.014492
Ir     11.58655      9.77861     14.17696        -0.000442     -0.008922     -0.013785
Ir      7.15833      9.34459     11.47783        -0.001318     -0.003150      0.000872
