152
# total energy = -1110.39339001 eVH     10.35389      5.87395      7.64558        -0.389504     -0.130036      1.153339
H     10.62451     15.10445      7.64558         0.326302      0.077744      0.917204
H     10.62451      5.87395     13.33282        -0.318181     -0.674552     -1.335016
H     10.35389     15.10445     13.33282        -0.586583      0.429312     -0.333791
H      7.64558     10.35389      5.87395         0.559309     -0.521502     -0.101979
H      7.64558     10.62451     15.10445         0.385589     -0.233796      0.042882
H     13.33282     10.62451      5.87395        -0.581226      0.647619     -0.049388
H     13.33282     10.35389     15.10445        -0.525357      0.385074      0.152626
H      5.87395      7.64558     10.35389         0.149665      0.556755      0.027572
H     15.10445      7.64558     10.62451         0.428632      1.022626      0.286141
H      5.87395     13.33282     10.62451        -0.220372     -0.504356      0.361859
H     15.10445     13.33282     10.35389         0.028083     -0.299659     -0.380370
H      5.87395     10.35389      7.64558        -0.104658     -0.414816      1.491597
H     15.10445     10.62451      7.64558         0.220253      0.515651      1.327709
H      5.87395     10.62451     13.33282        -0.216952     -0.369805     -1.206609
H     15.10445     10.35389     13.33282         0.612736      1.004525     -1.533788
H     10.35389      7.64558      5.87395        -0.587444      0.531735     -0.173212
H     10.62451      7.64558     15.10445        -0.133234      0.447997      0.155861
H     10.62451     13.33282      5.87395         0.867840     -1.326172     -0.312879
H     10.35389     13.33282     15.10445         0.223406     -0.563799     -0.107162
H      7.64558      5.87395     10.35389         0.720961      0.163086     -0.174590
H      7.64558     15.10445     10.62451         1.980782      0.748012      0.222866
H     13.33282      5.87395     10.62451        -2.650584     -0.900987     -0.515649
H     13.33282     15.10445     10.35389        -0.877439     -0.056664     -0.253257
H     12.45634     12.45634     19.01126         0.272028      0.257672     -0.227615
H     19.01126     19.01126     19.01126        -0.266740     -0.254925     -0.238977
H     19.01126     12.45634     12.45634        -0.284067      0.281583      0.184596
H     12.45634     19.01126     12.45634         0.256585     -0.250851      0.235518
C     10.35284      5.61067      6.59456         0.076494     -0.482617     -1.202019
C     10.62556     15.36773      6.59456         0.193271      0.754426     -0.812806
C     10.62556      5.61067     14.38384         0.179844     -0.295248      1.783278
C     10.35284     15.36773     14.38384         0.085294      0.383751      1.792301
C      6.59456     10.35284      5.61067        -1.138808     -0.111084     -0.898485
C      6.59456     10.62556     15.36773        -0.700979     -0.094852      0.796392
C     14.38384     10.62556      5.61067         0.836351     -0.112081     -0.989911
C     14.38384     10.35284     15.36773         1.177544      0.168020      1.097145
C      5.61067      6.59456     10.35284        -0.668580     -0.901862     -0.189178
C     15.36773      6.59456     10.62556         2.011757     -0.325038     -0.187543
C      5.61067     14.38384     10.62556        -1.568479     -0.014573     -0.142543
C     15.36773     14.38384     10.35284         0.484551      0.090250     -0.000231
C      5.61067     10.35284      6.59456        -0.273869      0.214763     -1.354745
C     15.36773     10.62556      6.59456         0.296537     -0.267277     -0.979236
C      5.61067     10.62556     14.38384        -0.255808      0.447889      1.456450
C     15.36773     10.35284     14.38384         0.000271     -0.492104      1.944159
C     10.35284      6.59456      5.61067        -0.158501     -0.846025     -0.699745
C     10.62556      6.59456     15.36773        -0.118514     -0.713096      1.042772
C     10.62556     14.38384      5.61067        -0.500415      1.985992     -0.750964
C     10.35284     14.38384     15.36773        -0.258638      1.355777      0.503567
C      6.59456      5.61067     10.35284        -0.989613     -0.410776      0.094581
C      6.59456     15.36773     10.62556        -1.254509      0.368169     -0.333320
C     14.38384      5.61067     10.62556         1.268433     -1.302993      0.219948
C     14.38384     15.36773     10.35284         0.457750      0.310460      0.086456
C     10.40319      3.19606      7.29314         0.001181      0.304747     -0.112005
C     10.35913      4.25547      6.23373         0.142311     -0.579470      0.015941
C      0.08601      7.29314      7.29314        -0.053364     -0.278587     -0.419755
C      0.13007      6.23373      6.23373        -0.123558      0.666475      0.016526
C      0.08601      3.19606      3.19606        -0.105567      1.663749      0.164958
C      0.13007      4.25547      4.25547        -0.098082     -0.392152     -1.204887
C     10.40319      7.29314      3.19606         0.015850     -0.451772      0.121561
C     10.35913      6.23373      4.25547         0.264460      0.086678     -0.537458
C      7.29314     10.40319      3.19606        -1.698249      0.011047      0.324266
C      6.23373     10.35913      4.25547         0.671629      0.081350     -0.624339
C      7.29314      0.08601      7.29314        -0.410775     -0.015789     -0.317842
C      6.23373      0.13007      6.23373         0.729204     -0.058821      0.244322
C      3.19606      0.08601      3.19606         0.662024     -0.018827      0.179319
C      4.25547      0.13007      4.25547        -0.355686     -0.086192     -0.573701
C      3.19606     10.40319      7.29314         0.349041      0.023657     -0.319974
C      4.25547     10.35913      6.23373        -0.742280      0.079320      0.362134
C      3.19606      7.29314     10.40319         0.284857     -0.202349     -0.006736
C      4.25547      6.23373     10.35913         0.042650      0.632493      0.091585
C      7.29314      7.29314      0.08601        -0.715645     -0.609850     -0.028393
C      6.23373      6.23373      0.13007         0.903007      1.124087     -0.065816
C      3.19606      3.19606      0.08601         0.824386      0.514302      0.000360
C      4.25547      4.25547      0.13007        -0.324948     -1.768783     -0.130457
C      7.29314      3.19606     10.40319        -0.324628      0.270623     -0.004761
C      6.23373      4.25547     10.35913         0.509159     -0.020355      0.231081
O     10.43466      3.58206      8.50569        -0.048575      0.187050      0.259576
O     10.54374     17.39634      8.50569         0.042262     -0.237059      0.486755
O     10.54374      3.58206     12.47271         0.084017     -0.076444     -0.022191
O     10.43466     17.39634     12.47271        -0.023094     -0.141729     -0.268654
O      8.50569     10.43466      3.58206         0.993195      0.189832      0.375964
O      8.50569     10.54374     17.39634         0.580226      0.084143     -0.229831
O     12.47271     10.54374      3.58206        -0.413299     -0.041510      0.181451
O     12.47271     10.43466     17.39634        -0.505790     -0.067616     -0.192863
O      3.58206      8.50569     10.43466         0.184548      0.422718     -0.028911
O     17.39634      8.50569     10.54374        -0.230418      0.712201      0.046225
O      3.58206     12.47271     10.54374         0.162269     -0.682618      0.026203
O     17.39634     12.47271     10.43466        -0.186785     -0.474919     -0.010471
O      3.58206     10.43466      8.50569         0.231864     -0.062134      0.406156
O     17.39634     10.54374      8.50569        -0.171947      0.037225      0.412598
O      3.58206     10.54374     12.47271         0.148257      0.021341     -0.303758
O     17.39634     10.43466     12.47271         0.082086     -0.051958     -0.069814
O     10.43466      8.50569      3.58206         0.005451      0.273615      0.183728
O     10.54374      8.50569     17.39634         0.069584      0.425167     -0.173971
O     10.54374     12.47271      3.58206        -0.222118     -0.975069      0.328728
O     10.43466     12.47271     17.39634        -0.082009     -0.451270     -0.245393
O      8.50569      3.58206     10.43466         0.488777      0.197242     -0.009951
O      8.50569     17.39634     10.54374         0.665003     -0.204129      0.022172
O     12.47271      3.58206     10.54374        -0.747353      0.280798      0.038271
O     12.47271     17.39634     10.43466        -0.432104     -0.206411     -0.043761
O     11.90042     11.90042     19.56718        -0.347205     -0.307402      0.260962
O     19.56718     19.56718     19.56718         0.324148      0.311427      0.284128
O     19.56718     11.90042     11.90042         0.274421     -0.273652     -0.138242
O     11.90042     19.56718     11.90042        -0.305216      0.282685     -0.233227
O      9.45224      1.03696      9.45224        -0.061434      0.073136     -0.045139
O      1.03696      9.45224      9.45224         0.035832     -0.076007     -0.070088
O      1.03696      1.03696      1.03696         0.064109      0.150531      0.094824
O      9.45224      9.45224      1.03696        -0.143979     -0.099399      0.095227
Zr     10.48920      2.52580     10.48920         0.164742     -0.174181     -0.168602
Zr     10.48920     18.45260     10.48920        -0.101546      0.188031     -0.051472
Zr     10.48920     10.48920      2.52580         0.344992     -0.310483     -0.206344
Zr     10.48920     10.48920     18.45260         0.015598     -0.088879      0.199226
Zr      2.52580     10.48920     10.48920        -0.072224      0.180105     -0.052736
Zr     18.45260     10.48920     10.48920         0.147587     -0.133422     -0.253516
Ir     12.03828     12.48366     10.45362        -0.005121      0.000482      0.015750
Ir     11.22126      7.41355     10.23807         0.011141     -0.002534     -0.022368
Ir      8.85877      7.34725     11.51863         0.000561     -0.008673     -0.009168
Ir      7.45892     11.64729      7.65699        -0.008866     -0.004139     -0.001728
Ir     11.59617     12.07031      7.11078         0.002797     -0.003133     -0.002110
Ir     13.78715      8.99308      7.51837         0.005478     -0.001038     -0.007893
Ir     12.47024     13.95158      8.40531        -0.001693      0.000257     -0.007627
Ir      9.74129     11.25351      5.53691         0.002330     -0.001169     -0.007204
Ir      9.07371     13.43878      7.07748         0.000687     -0.004520     -0.004353
Ir      9.26506      9.67423      7.49659        -0.006662      0.006226     -0.003876
Ir     13.28595      7.03463     11.96090         0.002675     -0.016393     -0.002906
Ir     13.64371      7.04224      9.10577         0.007115      0.004741     -0.006343
Ir     11.04553      7.58998     12.79379        -0.006554     -0.004888     -0.004986
Ir     13.59673     11.56457      8.74994        -0.000801     -0.005409     -0.003359
Ir     11.50183      9.61864      6.21606         0.001199     -0.008110     -0.006069
Ir      7.16267      9.14348      8.91724         0.001917     -0.004216     -0.005688
Ir     14.06109     11.43988     11.64476        -0.002040      0.004222     -0.004427
Ir     11.66240      9.82229      8.85550        -0.000338     -0.005595     -0.006108
Ir      9.44584      9.49756     10.22256         0.002469      0.009633     -0.010102
Ir     13.88152      9.41349     10.16371         0.002422      0.003343     -0.009668
Ir     13.84118      9.16224     12.87508         0.014301      0.006997     -0.002439
Ir     11.70518      9.75768     11.53466         0.003963      0.003276     -0.012533
Ir      9.91887     11.72715      8.96076         0.002621     -0.024261      0.001034
Ir      9.11485      7.43421      8.76260         0.009042     -0.002888     -0.018096
Ir     11.64623      7.51681      7.71456         0.022009     -0.015439     -0.009193
Ir      9.25633      9.46394     13.00091        -0.000587     -0.004253      0.000215
Ir      7.50462     13.89824      8.99402        -0.001458     -0.001398      0.001683
Ir     10.86124     14.09728     11.95244        -0.000170     -0.016264     -0.005567
Ir     10.11088     14.14304      9.51384         0.000441      0.003239      0.004642
Ir      9.79079     11.67581     11.72229         0.001606      0.002134     -0.003890
Ir      7.59170     11.55924     10.20443         0.002963     -0.003724      0.000876
Ir      8.34304     13.73125     11.58084         0.002349     -0.008842     -0.000870
Ir      7.52580     11.53760     12.82003        -0.000240     -0.005079     -0.002342
Ir      9.78077     11.58577     14.34167         0.002466     -0.008783      0.001800
Ir     13.46374     13.88373     12.18505        -0.005759     -0.006377     -0.000822
Ir     11.99013     12.04079     13.07613         0.003089      0.004211     -0.013299
Ir     11.58849      9.77508     14.17297         0.002727     -0.011886     -0.006332
Ir      7.15934      9.34266     11.47548        -0.000137     -0.003631     -0.005628
