152
# total energy = -1060.07516617 eVH     10.35389      5.87395      7.64558        -0.295983      0.065143      1.127852
H     10.62451     15.10445      7.64558         0.048057     -0.070284      0.932753
H     10.62451      5.87395     13.33282        -0.274681      0.058826     -0.796727
H     10.35389     15.10445     13.33282         0.071911     -0.306041     -0.860685
H      7.64558     10.35389      5.87395         0.932564     -0.149093      0.189165
H      7.64558     10.62451     15.10445         0.328910     -0.037734     -0.070207
H     13.33282     10.62451      5.87395        -0.864002      0.191204      0.225272
H     13.33282     10.35389     15.10445        -0.276346     -0.019681     -0.069547
H      5.87395      7.64558     10.35389         0.089253      0.429433     -0.008800
H     15.10445      7.64558     10.62451         0.005352      0.454435     -0.073496
H      5.87395     13.33282     10.62451        -0.003958     -0.958260      0.092630
H     15.10445     13.33282     10.35389        -0.044553     -0.328800     -0.007842
H      5.87395     10.35389      7.64558         0.289830      0.100110      0.389971
H     15.10445     10.62451      7.64558        -0.116882     -0.177827      0.672151
H      5.87395     10.62451     13.33282        -0.070291      0.455425     -0.616896
H     15.10445     10.35389     13.33282         0.259608     -0.657228     -0.827862
H     10.35389      7.64558      5.87395        -0.048598      0.492992      0.341260
H     10.62451      7.64558     15.10445         0.309073      0.816833      0.010898
H     10.62451     13.33282      5.87395         0.141670     -0.559898      0.201307
H     10.35389     13.33282     15.10445         0.020456     -0.285793     -0.164354
H      7.64558      5.87395     10.35389         0.351430      0.102938      0.047435
H      7.64558     15.10445     10.62451         0.389230     -0.124940      0.167843
H     13.33282      5.87395     10.62451        -0.306312      0.133826     -0.016970
H     13.33282     15.10445     10.35389        -0.667920     -0.087142      0.125801
H     12.45634     12.45634     19.01126         0.256762      0.271759     -0.227808
H     19.01126     19.01126     19.01126        -0.245479     -0.268858     -0.246872
H     19.01126     12.45634     12.45634        -0.250834      0.271323      0.235364
H     12.45634     19.01126     12.45634         0.289621     -0.236933      0.233555
C     10.35284      5.61067      6.59456         0.400600     -0.418899     -1.402372
C     10.62556     15.36773      6.59456        -0.144825      0.576055     -0.642608
C     10.62556      5.61067     14.38384         0.372995     -0.320189      0.804460
C     10.35284     15.36773     14.38384        -0.218206      0.184289      1.084098
C      6.59456     10.35284      5.61067        -1.418683      0.032944     -0.244193
C      6.59456     10.62556     15.36773        -0.644338      0.064744      0.365128
C     14.38384     10.62556      5.61067         1.282607     -0.165610     -0.643239
C     14.38384     10.35284     15.36773         0.338842     -0.120955      0.344671
C      5.61067      6.59456     10.35284        -0.287035     -0.690377     -0.027264
C     15.36773      6.59456     10.62556         0.412130     -0.940762      0.057551
C      5.61067     14.38384     10.62556        -0.141167      1.166988     -0.207918
C     15.36773     14.38384     10.35284         0.504911      0.676885     -0.023411
C      5.61067     10.35284      6.59456        -0.383282     -0.095937     -0.729519
C     15.36773     10.62556      6.59456         0.429342      0.113425     -0.763971
C      5.61067     10.62556     14.38384        -0.394391     -0.170260      1.218129
C     15.36773     10.35284     14.38384         0.270332      0.192052      1.493456
C     10.35284      6.59456      5.61067        -0.056270     -0.744021     -0.605299
C     10.62556      6.59456     15.36773        -0.134753     -0.963219      0.369350
C     10.62556     14.38384      5.61067        -0.474423      0.391030     -0.732848
C     10.35284     14.38384     15.36773        -0.161196      0.720170      0.450711
C      6.59456      5.61067     10.35284        -0.550100     -0.353143      0.011095
C      6.59456     15.36773     10.62556        -0.404795      0.455218      0.057822
C     14.38384      5.61067     10.62556         0.435407     -0.329300     -0.000935
C     14.38384     15.36773     10.35284         1.140898      0.525908     -0.068460
C     10.40319      3.19606      7.29314        -0.002714      0.709794     -0.329328
C     10.35913      4.25547      6.23373         0.009979     -0.413892      0.289114
C      0.08601      7.29314      7.29314        -0.016595     -0.355844     -0.507760
C      0.13007      6.23373      6.23373        -0.054232      0.897258      0.083135
C      0.08601      3.19606      3.19606        -0.003835      0.701496      0.264258
C      0.13007      4.25547      4.25547         0.038091     -0.272327     -0.534405
C     10.40319      7.29314      3.19606        -0.067150     -1.148459      0.568887
C     10.35913      6.23373      4.25547        -0.038512      0.362872     -0.192489
C      7.29314     10.40319      3.19606        -1.098714     -0.059278      0.187054
C      6.23373     10.35913      4.25547         0.370461      0.083519     -0.540303
C      7.29314      0.08601      7.29314        -0.410939      0.035541     -0.533997
C      6.23373      0.13007      6.23373         0.182653      0.126961      0.130748
C      3.19606      0.08601      3.19606         0.725973      0.031390      0.162408
C      4.25547      0.13007      4.25547        -0.169366     -0.041913     -0.366291
C      3.19606     10.40319      7.29314         0.367542     -0.023704     -0.913358
C      4.25547     10.35913      6.23373        -0.143427     -0.073698      0.096027
C      3.19606      7.29314     10.40319         0.594834     -0.396782      0.001205
C      4.25547      6.23373     10.35913        -0.111088      0.190024      0.006834
C      7.29314      7.29314      0.08601        -0.419833     -0.314278     -0.017990
C      6.23373      6.23373      0.13007         0.161958      0.183497     -0.044274
C      3.19606      3.19606      0.08601         0.290131      0.486253     -0.026052
C      4.25547      4.25547      0.13007        -0.389186     -0.223804     -0.042411
C      7.29314      3.19606     10.40319        -0.272570      0.581733     -0.010490
C      6.23373      4.25547     10.35913         0.017836     -0.089492      0.019311
O     10.43466      3.58206      8.50569        -0.026043      0.087734      0.315588
O     10.54374     17.39634      8.50569         0.064403     -0.134453      0.610113
O     10.54374      3.58206     12.47271         0.027212      0.102002     -0.391945
O     10.43466     17.39634     12.47271         0.091297     -0.051123     -0.391090
O      8.50569     10.43466      3.58206         0.734371     -0.068449      0.013563
O      8.50569     10.54374     17.39634         0.459818      0.057248     -0.073881
O     12.47271     10.54374      3.58206        -0.668901      0.108583      0.212617
O     12.47271     10.43466     17.39634        -0.280892      0.003481      0.023051
O      3.58206      8.50569     10.43466         0.038542      0.453065     -0.064466
O     17.39634      8.50569     10.54374        -0.054106      0.456408      0.056115
O      3.58206     12.47271     10.54374         0.109152     -0.591653      0.002644
O     17.39634     12.47271     10.43466        -0.170656     -0.725241     -0.055845
O      3.58206     10.43466      8.50569         0.210716     -0.063923      0.795683
O     17.39634     10.54374      8.50569        -0.115263      0.076515      0.583828
O      3.58206     10.54374     12.47271        -0.008177     -0.003856     -0.254720
O     17.39634     10.43466     12.47271         0.044774     -0.012423     -0.210211
O     10.43466      8.50569      3.58206        -0.099638      0.558284     -0.101743
O     10.54374      8.50569     17.39634         0.063634      0.501575     -0.087437
O     10.54374     12.47271      3.58206         0.105560     -0.642193      0.133387
O     10.43466     12.47271     17.39634        -0.063183     -0.666194     -0.257205
O      8.50569      3.58206     10.43466         0.398619      0.028763     -0.037752
O      8.50569     17.39634     10.54374         0.636273     -0.154898      0.048182
O     12.47271      3.58206     10.54374        -0.510750      0.121770      0.032113
O     12.47271     17.39634     10.43466        -0.618553     -0.134654      0.038520
O     11.90042     11.90042     19.56718        -0.276676     -0.308835      0.229202
O     19.56718     19.56718     19.56718         0.304690      0.322225      0.301019
O     19.56718     11.90042     11.90042         0.285760     -0.327901     -0.232039
O     11.90042     19.56718     11.90042        -0.315084      0.230917     -0.200350
O      9.45224      1.03696      9.45224        -0.075529      0.078001     -0.079092
O      1.03696      9.45224      9.45224         0.094183     -0.109686     -0.055054
O      1.03696      1.03696      1.03696         0.081281      0.051554      0.101991
O      9.45224      9.45224      1.03696        -0.057028     -0.129934      0.133809
Zr     10.48920      2.52580     10.48920         0.035250     -0.079093      0.093184
Zr     10.48920     18.45260     10.48920        -0.173532      0.260721     -0.354038
Zr     10.48920     10.48920      2.52580         0.108987      0.358681     -0.358173
Zr     10.48920     10.48920     18.45260        -0.086698     -0.235982      0.208109
Zr      2.52580     10.48920     10.48920        -0.245071      0.134931      0.231750
Zr     18.45260     10.48920     10.48920         0.214712     -0.113728      0.003452
Pd      9.38403     14.25993      9.37972         0.006267      0.006918     -0.050913
Pd      8.60430     13.67458     12.96165         0.013468     -0.012561      0.013152
Pd     12.02318     14.40207      8.72647         0.015998      0.001031      0.006504
Pd     12.83713     12.86195     10.61972        -0.051162      0.011999      0.030398
Pd     12.10904      7.16994     12.66893         0.014405     -0.011971     -0.034461
Pd     11.22827     14.82644     11.51471        -0.027064      0.019716     -0.026589
Pd     10.11734     12.47843     11.11805        -0.050650      0.043645     -0.023403
Pd     13.47289     12.11365      7.97133         0.001428      0.014675      0.005932
Pd     11.47784     11.53996      6.10186         0.007167      0.006547     -0.001397
Pd      7.89640      8.54370      7.52106         0.009482     -0.058849      0.022093
Pd      8.72767     11.74525      6.85991        -0.005747      0.010086     -0.004444
Pd     10.34837      9.45835      8.14310        -0.027351     -0.001615     -0.011258
Pd      8.51197     14.45525      6.85507        -0.001101      0.005495     -0.036667
Pd     12.37481      8.99085      6.52591         0.024737      0.012099      0.003576
Pd      9.72401      9.60798      5.56221        -0.004503      0.006810     -0.013546
Pd      6.84430      9.44113     12.17621        -0.010388      0.010596      0.000275
Pd     12.19314      6.70594      7.91661        -0.001521      0.010102      0.001211
Pd      5.92929     10.46487      9.72022        -0.007028     -0.003580     -0.001328
Pd      7.59049      7.19059     13.37784        -0.008004      0.025882      0.012763
Ir     11.79084      9.75981     13.04190        -0.019352     -0.036471      0.003389
Ir     13.56955      8.98566     11.43610        -0.015649      0.043450      0.000636
Ir      9.46494      8.84990     13.94659        -0.037185     -0.029184      0.039800
Ir     10.57092     11.02650     14.83127        -0.020449     -0.016598      0.000932
Ir      7.29078     12.01182     11.34705         0.003246      0.000415     -0.003973
Ir     14.69498     10.82044     10.07452        -0.022075      0.048582      0.041279
Ir     12.16330     10.54762      9.71475         0.002675      0.000858     -0.028541
Ir      8.76416     11.01057     13.00460        -0.010573      0.023996     -0.015095
Ir     10.11396      9.86761     11.20217         0.005451      0.026258     -0.002254
Ir     13.79961     11.36490     12.39518        -0.028911      0.006184      0.037136
Ir     11.71275     12.36306     13.08111        -0.061238     -0.016603      0.010408
Ir      8.51587     11.07642      9.35368        -0.029399      0.021517     -0.010850
Ir     11.57667      7.99569     10.10952        -0.002478      0.008843     -0.010251
Ir      7.22880     13.01183      8.68110         0.006552      0.004570     -0.008928
Ir      9.51193      6.99518      9.14292         0.003685      0.010755      0.061433
Ir      8.04414      8.75247     10.07705         0.011099     -0.006283      0.008848
Ir     10.73230     12.10648      8.51100        -0.012118      0.012556      0.018437
Ir      9.51966      7.49208     11.69502        -0.006557      0.027195      0.033449
Ir     13.63166      8.78156      8.78351         0.017601     -0.004945      0.049907
