35
# total energy = -301.58714849 eVC      6.68874     10.29713      7.66884        -0.052247      0.028735     -0.030609
C      8.07606      9.95033      7.58655         0.011743     -0.010487     -0.002700
C      9.41691      5.71506      7.64396        -0.044812     -0.010564     -0.032692
C      1.46443      5.34447      7.69127         0.013074      0.041073      0.019358
C      4.19088      0.76012      7.64282         0.088974     -0.021528     -0.036779
C      2.80300      1.10615      7.57014         0.027350     -0.051066     -0.016170
C      0.70380      4.16401      7.66060        -0.040805      0.007919     -0.018938
C      1.08436      2.78581      7.57973         0.058549     -0.046925      0.008103
C      5.35374      1.55074      7.63230        -0.017182      0.012013     -0.017710
C      5.52619      9.50770      7.69972         0.015530     -0.027349      0.023209
C     10.17806      6.89608      7.64798         0.033988     -0.058269     -0.026266
C      9.79851      8.27479      7.57462        -0.009968     -0.012679     -0.001838
C      0.77862      6.57583      7.65656         0.017031     -0.080531     -0.008351
C      1.26727      7.92003      7.57748         0.031469     -0.039381      0.032945
C     10.10274      4.48409      7.64247        -0.001937      0.035107     -0.011537
C      9.61633      3.13928      7.55267        -0.066139      0.010994      0.003763
C      4.27807     10.16110      7.66657         0.043823      0.033376     -0.013703
C      2.94561      9.63969      7.58457         0.042716     -0.022499      0.028608
C      6.60142      0.89546      7.63255        -0.025585      0.012674     -0.007932
C      7.93422      1.41533      7.54361        -0.022174      0.074453      0.016661
N      8.80515      0.32962      7.46785         0.029879     -0.068112      0.012462
N      0.16241      8.76475      7.48574        -0.077023      0.048841     -0.001079
N      8.55016      8.71406      7.60068        -0.059628     -0.019306      0.045944
N      2.33338      2.34247      7.59524        -0.045705      0.107769      0.045853
N      2.07369     10.72371      7.49442        -0.030791      0.079613     -0.000964
N     10.72284      2.29476      7.47897         0.084032     -0.005294     -0.000064
N      2.58081      8.31658      7.59096         0.055996     -0.027156      0.093594
N      8.30200      2.73965      7.54409        -0.048081      0.013423      0.052889
O      5.32160      2.87932      7.55714         0.066039      0.013291     -0.038683
O      5.56215      8.17795      7.74134        -0.069815      0.004191      0.032058
O      8.08772      5.71553      7.57502        -0.024616     -0.081811     -0.049627
O      2.79442      5.34329      7.73394        -0.010328      0.054291      0.031191
Zr      6.54454      4.45377      7.44450        -0.009082      0.032535     -0.008186
Zr      4.34387      6.59852      7.78638         0.023905     -0.026997      0.005778
Zr      0.02745     10.81058      6.87123         0.011825     -0.000344     -0.128587
