152
# total energy = -1006.00318055 eVH     10.35389      5.87395      7.64558         0.259602      0.034517      0.638430
H     10.62451     15.10445      7.64558        -0.107264     -0.141086      0.512433
H     10.62451      5.87395     13.33282         0.484503      0.121622     -0.583486
H     10.35389     15.10445     13.33282         0.078779     -0.183211     -0.556319
H      7.64558     10.35389      5.87395         0.372434      0.093791      0.162157
H      7.64558     10.62451     15.10445         0.696605      0.471401     -0.039642
H     13.33282     10.62451      5.87395        -0.532870      0.421860      0.074922
H     13.33282     10.35389     15.10445        -0.803586     -0.093638      0.009061
H      5.87395      7.64558     10.35389         0.239850      0.685851     -0.402416
H     15.10445      7.64558     10.62451        -0.095266      0.479775      0.282992
H      5.87395     13.33282     10.62451         0.159801     -0.695843     -0.156558
H     15.10445     13.33282     10.35389        -0.010953     -1.022504     -0.326902
H      5.87395     10.35389      7.64558         0.251860      0.323787      0.760665
H     15.10445     10.62451      7.64558        -0.107578      0.403522      0.759069
H      5.87395     10.62451     13.33282         0.134264      0.327564     -0.690464
H     15.10445     10.35389     13.33282        -0.055531     -0.070750     -0.687352
H     10.35389      7.64558      5.87395         0.395411      1.055206     -0.009533
H     10.62451      7.64558     15.10445         0.536311      0.537233     -0.120683
H     10.62451     13.33282      5.87395        -0.398397     -0.847067      0.186192
H     10.35389     13.33282     15.10445        -0.045039     -0.433449     -0.216582
H      7.64558      5.87395     10.35389         0.848658      0.096864     -0.289730
H      7.64558     15.10445     10.62451         0.837846     -0.196092      0.013258
H     13.33282      5.87395     10.62451        -0.805645      0.197589      0.586818
H     13.33282     15.10445     10.35389        -0.443755     -0.111897     -0.129869
H     12.45634     12.45634     19.01126         0.235388      0.270216     -0.240008
H     19.01126     19.01126     19.01126        -0.262388     -0.240532     -0.261059
H     19.01126     12.45634     12.45634        -0.266834      0.268920      0.218326
H     12.45634     19.01126     12.45634         0.232049     -0.255228      0.278976
C     10.35284      5.61067      6.59456        -0.433502     -0.743766      0.207752
C     10.62556     15.36773      6.59456         0.061277      0.368540     -0.295092
C     10.62556      5.61067     14.38384        -0.333655     -0.359526     -0.306194
C     10.35284     15.36773     14.38384        -0.009217      0.330888      0.544131
C      6.59456     10.35284      5.61067        -0.202509     -0.001885     -0.401020
C      6.59456     10.62556     15.36773        -0.265317     -0.220667      0.809482
C     14.38384     10.62556      5.61067        -0.273615     -0.401156     -0.516433
C     14.38384     10.35284     15.36773         0.977613     -0.053612      0.256580
C      5.61067      6.59456     10.35284        -0.540016      0.005976      0.184139
C     15.36773      6.59456     10.62556         0.524460      0.026217     -0.251366
C      5.61067     14.38384     10.62556        -0.341491      0.971917      0.076616
C     15.36773     14.38384     10.35284         0.318896      1.033078      0.054754
C      5.61067     10.35284      6.59456        -0.178699     -0.326863     -0.626876
C     15.36773     10.62556      6.59456         0.447944     -0.290717      0.119100
C      5.61067     10.62556     14.38384        -0.729583     -0.355540     -0.057806
C     15.36773     10.35284     14.38384         0.387058     -0.060424      1.006770
C     10.35284      6.59456      5.61067        -0.202506     -0.196165     -0.659273
C     10.62556      6.59456     15.36773        -0.267620      0.122193      0.447134
C     10.62556     14.38384      5.61067         0.206785      1.066906     -0.347659
C     10.35284     14.38384     15.36773         0.028193      0.536017      0.433890
C      6.59456      5.61067     10.35284        -0.178591     -0.631101      0.232372
C      6.59456     15.36773     10.62556        -1.025054      0.301371      0.079648
C     14.38384      5.61067     10.62556         0.493215     -0.542936     -0.365007
C     14.38384     15.36773     10.35284         0.215023      0.453830     -0.102558
C     10.40319      3.19606      7.29314         0.006894      0.696382     -0.489384
C     10.35913      4.25547      6.23373         0.085580     -0.731863     -0.015596
C      0.08601      7.29314      7.29314        -0.043870     -0.410498     -0.308562
C      0.13007      6.23373      6.23373        -0.022410      0.081996      0.567600
C      0.08601      3.19606      3.19606        -0.018160      1.247633      0.279836
C      0.13007      4.25547      4.25547         0.048901     -0.776522     -0.151955
C     10.40319      7.29314      3.19606         0.009174     -0.346920      0.358386
C     10.35913      6.23373      4.25547         0.027402      0.015440     -0.905254
C      7.29314     10.40319      3.19606        -0.365245      0.019274      0.565612
C      6.23373     10.35913      4.25547         0.207800      0.048271     -0.131526
C      7.29314      0.08601      7.29314        -0.525465     -0.064042     -0.371950
C      6.23373      0.13007      6.23373         0.680417     -0.046613      0.492513
C      3.19606      0.08601      3.19606         0.665657     -0.037392      0.564789
C      4.25547      0.13007      4.25547        -0.572653     -0.080345     -0.555009
C      3.19606     10.40319      7.29314         0.484766     -0.021501     -0.781679
C      4.25547     10.35913      6.23373        -0.509615      0.027999      0.202607
C      3.19606      7.29314     10.40319         0.283329     -1.250794      0.037617
C      4.25547      6.23373     10.35913        -0.697458      0.099429      0.152596
C      7.29314      7.29314      0.08601        -0.406580     -0.370868     -0.028223
C      6.23373      6.23373      0.13007         0.468443      0.213877     -0.021473
C      3.19606      3.19606      0.08601         0.503074      0.372006     -0.039087
C      4.25547      4.25547      0.13007        -0.148851     -0.651495     -0.034514
C      7.29314      3.19606     10.40319        -0.321623      0.420248      0.074834
C      6.23373      4.25547     10.35913         0.254335     -0.696159      0.135802
O     10.43466      3.58206      8.50569        -0.014108      0.101804      0.509453
O     10.54374     17.39634      8.50569         0.036632     -0.174532      0.481924
O     10.54374      3.58206     12.47271         0.057950     -0.082427     -0.188461
O     10.43466     17.39634     12.47271        -0.038158     -0.182663     -0.568433
O      8.50569     10.43466      3.58206         0.340944      0.005223      0.037119
O      8.50569     10.54374     17.39634         0.632822      0.033346     -0.145368
O     12.47271     10.54374      3.58206        -0.673202      0.082676      0.091700
O     12.47271     10.43466     17.39634        -0.439887      0.027443     -0.111624
O      3.58206      8.50569     10.43466         0.182625      1.029972     -0.049320
O     17.39634      8.50569     10.54374        -0.162704      0.539422      0.076396
O      3.58206     12.47271     10.54374         0.083234     -0.361655      0.048903
O     17.39634     12.47271     10.43466        -0.157748     -0.545554     -0.022705
O      3.58206     10.43466      8.50569         0.075689     -0.061378      0.594630
O     17.39634     10.54374      8.50569        -0.110830      0.065904      0.521491
O      3.58206     10.54374     12.47271         0.058204      0.052392     -0.535406
O     17.39634     10.43466     12.47271        -0.216484     -0.039995     -0.590723
O     10.43466      8.50569      3.58206        -0.038734      0.474884      0.134085
O     10.54374      8.50569     17.39634         0.048074      0.529784     -0.161084
O     10.54374     12.47271      3.58206        -0.003835     -1.002845      0.207783
O     10.43466     12.47271     17.39634         0.042104     -0.735812     -0.174303
O      8.50569      3.58206     10.43466         0.506244      0.146926     -0.053702
O      8.50569     17.39634     10.54374         0.485888     -0.197920      0.013765
O     12.47271      3.58206     10.54374        -0.642915      0.236273      0.008288
O     12.47271     17.39634     10.43466        -0.212759      0.068355     -0.056483
O     11.90042     11.90042     19.56718        -0.239656     -0.288778      0.247812
O     19.56718     19.56718     19.56718         0.310086      0.295198      0.300081
O     19.56718     11.90042     11.90042         0.290144     -0.264855     -0.233212
O     11.90042     19.56718     11.90042        -0.242618      0.291018     -0.336889
O      9.45224      1.03696      9.45224        -0.020608      0.086359     -0.072577
O      1.03696      9.45224      9.45224         0.090961     -0.090894     -0.138809
O      1.03696      1.03696      1.03696         0.088910      0.190256      0.047106
O      9.45224      9.45224      1.03696        -0.111919     -0.099842      0.030804
Zr     10.48920      2.52580     10.48920        -0.132339     -0.291638     -0.035846
Zr     10.48920     18.45260     10.48920        -0.072327      0.214064      0.095852
Zr     10.48920     10.48920      2.52580         0.065067     -0.411536     -0.249969
Zr     10.48920     10.48920     18.45260        -0.269896     -0.089737      0.324575
Zr      2.52580     10.48920     10.48920        -0.375489      0.238368      0.304709
Zr     18.45260     10.48920     10.48920         0.241175      0.000050     -0.222359
Pd     13.60401      8.99224      9.19635        -0.009228     -0.003926     -0.006638
Pd      5.62926      9.86574     10.12473         0.001869      0.000460     -0.006732
Pd      6.77028     11.84621     11.70853         0.001291     -0.001937     -0.000145
Pd     12.05787     12.99304      7.35814        -0.006513     -0.000495      0.000058
Pd     11.87397      7.73728      7.45122         0.000172     -0.006274     -0.003311
Pd      8.31722      6.82490      6.52196        -0.000161     -0.012077     -0.006137
Pd     10.55830     11.16766      5.65603        -0.020169      0.000016     -0.001225
Pd     14.39848      8.54685      6.72587        -0.002666     -0.000132     -0.002776
Pd      9.66336     11.72938      8.15217         0.002216     -0.005059      0.010208
Pd      6.72419      6.78604     12.34245        -0.002208     -0.001861      0.001859
Pd      6.62773      8.28820      7.86636         0.013248      0.014576     -0.019342
Pd      6.52287      8.48976     14.39326         0.000997     -0.001075      0.003248
Pd     11.48123      6.50729      9.95024        -0.002817     -0.004000     -0.000411
Pd      9.45542      9.19813      7.17340        -0.003593     -0.006810      0.000784
Pd      8.97841     13.99191      9.36943         0.000120     -0.002765      0.007660
Pd      9.42935      7.36615     11.69486        -0.004459      0.000251     -0.004605
Pd     10.63319      8.95550      9.67179         0.005341     -0.006144     -0.009760
Pd      9.34078     11.57351     10.74004        -0.004181      0.005404      0.009263
Pd      8.85798      7.07219      9.10402        -0.002843     -0.001047     -0.005828
Pd      8.55432      6.58028     14.23222         0.000891     -0.000844     -0.001515
Pd      7.61357      9.31794     12.03793        -0.006660      0.000547      0.004882
Pd     11.93700     10.37333      7.70592         0.001638     -0.010116     -0.015310
Pd      7.12871     12.01434      9.06669         0.001645     -0.002566      0.000660
Pd      8.15232      9.62536      9.48274         0.006578     -0.003187      0.013857
Pd     14.00889      6.50171      8.52534        -0.000552     -0.002666     -0.000422
Pd     12.62873      8.40820     11.56334        -0.005261     -0.001511     -0.002713
Pd      8.75883     11.57015     13.41474        -0.000990     -0.000648      0.003965
Pd     13.86639     11.90726      8.96887        -0.004121     -0.004125     -0.002533
Pd     12.93062     10.70058     13.07639        -0.004336     -0.005904     -0.002127
Pd     14.75917     10.42660     11.12125        -0.003988     -0.006050     -0.001673
Pd     12.04626     10.89636     10.53896        -0.009488      0.000723     -0.002356
Pd     11.44856     13.34984      9.92632         0.001059      0.002335      0.005536
Pd     13.59695     12.91022     11.62631         0.000411     -0.006292     -0.000543
Pd     11.11266     12.62994     12.54546         0.000020     -0.000851      0.002062
Pd     10.94197     11.06744     14.81829         0.000941     -0.001321     -0.000884
Pd     10.49591      9.71882     12.37754        -0.006136      0.000647     -0.002065
Pd      9.08393      9.14130     14.43730         0.002379      0.000386      0.003596
Pd      8.79414     13.86604     12.07251        -0.002167     -0.001865      0.008450
