152
# total energy = -1004.40809715 eVH     10.35389      5.87395      7.64558        -0.115793      0.142648      0.646265
H     10.62451     15.10445      7.64558        -0.186950     -0.164910      0.574552
H     10.62451      5.87395     13.33282         0.402382      0.034156     -0.870723
H     10.35389     15.10445     13.33282         0.057816     -0.178381     -0.510619
H      7.64558     10.35389      5.87395         0.362889      0.045355      0.148806
H      7.64558     10.62451     15.10445         0.864789      0.590415      0.006360
H     13.33282     10.62451      5.87395        -0.449427      0.031401      0.200550
H     13.33282     10.35389     15.10445        -0.811178     -0.233422      0.035687
H      5.87395      7.64558     10.35389         0.153160      1.734191      0.111590
H     15.10445      7.64558     10.62451        -0.075595      0.495868      0.246018
H      5.87395     13.33282     10.62451         0.204715     -0.576451     -0.012219
H     15.10445     13.33282     10.35389         0.212530     -1.341425     -0.445482
H      5.87395     10.35389      7.64558         0.138428      0.035344      0.506255
H     15.10445     10.62451      7.64558        -0.213070      0.912359      1.423330
H      5.87395     10.62451     13.33282        -0.045932      0.565839     -1.286642
H     15.10445     10.35389     13.33282         0.111129     -0.213604     -0.796886
H     10.35389      7.64558      5.87395         0.326078      1.273594      0.142280
H     10.62451      7.64558     15.10445         0.520338      0.767041     -0.092748
H     10.62451     13.33282      5.87395        -0.528123     -0.720604      0.303190
H     10.35389     13.33282     15.10445        -0.234545     -0.510122     -0.329219
H      7.64558      5.87395     10.35389         1.203921     -0.252089     -0.091321
H      7.64558     15.10445     10.62451         0.825696     -0.197489     -0.032083
H     13.33282      5.87395     10.62451        -0.594183      0.118072      0.655995
H     13.33282     15.10445     10.35389        -0.486474     -0.023408     -0.204245
H     12.45634     12.45634     19.01126         0.268731      0.251610     -0.231335
H     19.01126     19.01126     19.01126        -0.266531     -0.266392     -0.220875
H     19.01126     12.45634     12.45634        -0.277801      0.254730      0.228703
H     12.45634     19.01126     12.45634         0.245031     -0.281006      0.238443
C     10.35284      5.61067      6.59456        -0.145059     -0.791273     -0.437074
C     10.62556     15.36773      6.59456         0.102974      0.262977     -0.235514
C     10.62556      5.61067     14.38384        -0.046616     -0.473615      0.567933
C     10.35284     15.36773     14.38384         0.009781      0.240054      0.492902
C      6.59456     10.35284      5.61067        -0.484671      0.047355     -0.332553
C      6.59456     10.62556     15.36773        -0.929117      0.196804      0.703299
C     14.38384     10.62556      5.61067         0.715963      0.032958     -0.959859
C     14.38384     10.35284     15.36773         0.921846     -0.125468      0.399616
C      5.61067      6.59456     10.35284        -0.918371     -1.042929     -0.533224
C     15.36773      6.59456     10.62556         0.710704     -0.022365     -0.231361
C      5.61067     14.38384     10.62556        -0.248946      0.630549      0.012503
C     15.36773     14.38384     10.35284         0.299108      1.331814      0.052685
C      5.61067     10.35284      6.59456        -0.267968      0.010735     -0.680360
C     15.36773     10.62556      6.59456         0.465808     -0.386634     -1.009525
C      5.61067     10.62556     14.38384        -0.441821     -0.021742      0.953178
C     15.36773     10.35284     14.38384         0.481062     -0.069812      0.954237
C     10.35284      6.59456      5.61067        -0.120078     -0.926312     -0.376051
C     10.62556      6.59456     15.36773         0.097488     -0.725844      0.499199
C     10.62556     14.38384      5.61067         0.151491      1.064990     -0.360016
C     10.35284     14.38384     15.36773        -0.019262      1.023526      0.490244
C      6.59456      5.61067     10.35284        -0.583953     -1.257833      0.066585
C      6.59456     15.36773     10.62556        -0.963153      0.175749      0.108556
C     14.38384      5.61067     10.62556        -0.136207     -0.493527     -0.300080
C     14.38384     15.36773     10.35284         0.226369      0.605944     -0.073935
C     10.40319      3.19606      7.29314         0.005016      0.836526     -0.564126
C     10.35913      4.25547      6.23373         0.031835     -0.529158      0.133230
C      0.08601      7.29314      7.29314        -0.025133     -0.983283     -0.235017
C      0.13007      6.23373      6.23373        -0.075315      0.376807      0.324507
C      0.08601      3.19606      3.19606         0.052922      1.291367      0.147618
C      0.13007      4.25547      4.25547        -0.019211     -0.329293     -0.426805
C     10.40319      7.29314      3.19606        -0.009620     -0.519368      0.252371
C     10.35913      6.23373      4.25547        -0.024007      0.125573     -0.703889
C      7.29314     10.40319      3.19606        -0.334428      0.023999      0.429934
C      6.23373     10.35913      4.25547         0.223491      0.090593     -0.103742
C      7.29314      0.08601      7.29314        -1.032062     -0.090030     -0.397824
C      6.23373      0.13007      6.23373         0.656785     -0.190705      0.429663
C      3.19606      0.08601      3.19606         1.167939     -0.020278      0.355357
C      4.25547      0.13007      4.25547        -0.644556     -0.158638     -0.201244
C      3.19606     10.40319      7.29314         0.558056      0.029793     -0.309737
C      4.25547     10.35913      6.23373        -0.241692      0.101969      0.217817
C      3.19606      7.29314     10.40319         0.327618     -0.771204      0.038804
C      4.25547      6.23373     10.35913        -1.087200      0.100418      0.181800
C      7.29314      7.29314      0.08601        -0.472537     -0.501677     -0.015254
C      6.23373      6.23373      0.13007         0.486718      0.315128      0.012947
C      3.19606      3.19606      0.08601         0.547602      0.408811     -0.020482
C      4.25547      4.25547      0.13007        -0.028412     -0.739735     -0.100889
C      7.29314      3.19606     10.40319        -0.392232      0.506806      0.054802
C      6.23373      4.25547     10.35913         0.565113     -0.727447      0.205245
O     10.43466      3.58206      8.50569         0.010585      0.103348      0.524270
O     10.54374     17.39634      8.50569         0.053312     -0.027997      0.284165
O     10.54374      3.58206     12.47271        -0.003585     -0.076031     -0.148771
O     10.43466     17.39634     12.47271        -0.037283     -0.122815     -0.451816
O      8.50569     10.43466      3.58206         0.451186     -0.030879      0.080207
O      8.50569     10.54374     17.39634         0.831182     -0.062124     -0.163026
O     12.47271     10.54374      3.58206        -0.876829      0.129704      0.104160
O     12.47271     10.43466     17.39634        -0.605732      0.024295     -0.161203
O      3.58206      8.50569     10.43466         0.189288      0.811291     -0.018766
O     17.39634      8.50569     10.54374        -0.151046      0.676205      0.031818
O      3.58206     12.47271     10.54374         0.108837     -0.548777      0.053457
O     17.39634     12.47271     10.43466        -0.168718     -0.605911     -0.043617
O      3.58206     10.43466      8.50569         0.080984     -0.051950      0.432525
O     17.39634     10.54374      8.50569         0.034023      0.093495      0.385380
O      3.58206     10.54374     12.47271        -0.017891      0.027504     -0.287389
O     17.39634     10.43466     12.47271        -0.165291     -0.032276     -0.587654
O     10.43466      8.50569      3.58206        -0.028624      0.610827      0.169004
O     10.54374      8.50569     17.39634        -0.095538      0.801763     -0.219068
O     10.54374     12.47271      3.58206         0.109272     -0.957197      0.162517
O     10.43466     12.47271     17.39634         0.062570     -0.689858     -0.171439
O      8.50569      3.58206     10.43466         0.567898      0.140331     -0.046536
O      8.50569     17.39634     10.54374         0.553564     -0.149600      0.008973
O     12.47271      3.58206     10.54374        -0.696601      0.153310      0.017978
O     12.47271     17.39634     10.43466        -0.455182     -0.075265     -0.032885
O     11.90042     11.90042     19.56718        -0.321141     -0.286184      0.246085
O     19.56718     19.56718     19.56718         0.298358      0.313088      0.216088
O     19.56718     11.90042     11.90042         0.340845     -0.277009     -0.238238
O     11.90042     19.56718     11.90042        -0.267285      0.349540     -0.249010
O      9.45224      1.03696      9.45224        -0.028825      0.083850     -0.126753
O      1.03696      9.45224      9.45224         0.064973     -0.033122     -0.121696
O      1.03696      1.03696      1.03696         0.071220      0.095901      0.097273
O      9.45224      9.45224      1.03696        -0.047977     -0.037465      0.079369
Zr     10.48920      2.52580     10.48920        -0.067880     -0.202615      0.052217
Zr     10.48920     18.45260     10.48920         0.015525      0.066763      0.134704
Zr     10.48920     10.48920      2.52580        -0.311423     -0.366948     -0.366535
Zr     10.48920     10.48920     18.45260         0.131364      0.013338      0.393368
Zr      2.52580     10.48920     10.48920        -0.185265      0.052521     -0.046972
Zr     18.45260     10.48920     10.48920         0.173257     -0.008375      0.060268
Pd     12.97851      8.46805      9.86329        -0.058581     -0.006669     -0.073103
Pd      6.36122      9.55845     10.31077        -0.009432      0.061662     -0.022696
Pd      6.97498     11.61667     11.78210         0.023142      0.034988      0.067833
Pd     12.37259     13.42966      7.24920        -0.050426     -0.109679      0.062219
Pd     12.14130      7.88335      7.17615        -0.039511     -0.028709     -0.093525
Pd      8.48696      7.30769      6.86804        -0.018464     -0.027050      0.030904
Pd     11.42824     11.49886      5.62399        -0.073054     -0.090855     -0.046830
Pd     14.56401      8.84098      7.76227        -0.010871      0.013161     -0.137005
Pd      9.87385     11.79999      7.95559         0.015540      0.005576     -0.005305
Pd      7.06051      7.13617     12.00165        -0.003445     -0.005557      0.008864
Pd      6.34758      7.51025      8.39201         0.041512      0.004927      0.062818
Pd      7.23171      9.17932     13.56803        -0.004385      0.065358      0.089511
Pd     11.39510      6.30853      9.24001         0.033339     -0.017624     -0.005704
Pd     10.01302      9.53671      6.53099        -0.005384      0.001656      0.012069
Pd      9.06571     13.97076      9.37716        -0.015660      0.050875     -0.002825
Pd     10.88584      7.43568     11.49307        -0.000366     -0.071380     -0.042333
Pd     10.46116      9.06877      9.24649         0.116442      0.085308     -0.008919
Pd      9.45854     11.55688     10.56599        -0.011375     -0.042194      0.021898
Pd      8.82314      7.12604      9.57305         0.037333     -0.108331      0.038873
Pd      9.16821      7.41885     13.51195         0.016652     -0.045281      0.040728
Pd      8.77057      9.20742     11.36746        -0.056605     -0.032152     -0.008523
Pd     12.25608     10.51169      7.93716        -0.032721     -0.057082      0.013247
Pd      7.24365     11.92970      9.13099         0.042256      0.053006      0.011625
Pd      8.11299      9.58909      8.33861        -0.116768      0.074421     -0.029096
Pd     14.00218      6.37627      8.51318         0.034568     -0.025957      0.011562
Pd     13.23015      8.46194     12.47018        -0.025680      0.010235     -0.085837
Pd      9.05553     11.43033     13.33715        -0.088623     -0.053023     -0.031140
Pd     13.95380     12.14699      8.93345        -0.010270     -0.006416      0.102779
Pd     13.18970     11.12078     13.14808        -0.047185      0.011192      0.015922
Pd     14.61274     10.35888     10.84818         0.006850      0.009701      0.039727
Pd     11.97977     10.74306     10.72308        -0.036741      0.001355      0.042570
Pd     11.55166     13.19567      9.71794        -0.020306      0.074343      0.012600
Pd     13.64209     13.04304     11.51290         0.054172      0.084449      0.003340
Pd     11.16366     12.78718     12.36182        -0.047651     -0.022206      0.060112
Pd     11.23641     11.58513     14.86317         0.025264      0.010539      0.014993
Pd     10.95050      9.65113     12.93351        -0.035278      0.008957      0.006640
Pd      9.52005      9.55611     15.22146        -0.015514     -0.035613     -0.003652
Pd      8.69892     13.75463     12.04213         0.045003     -0.007006     -0.046887
