152
# total energy = -1002.22718132 eVH     10.35389      5.87395      7.64558         0.078190      0.072255      1.359519
H     10.62451     15.10445      7.64558         0.030812     -0.025711      1.072174
H     10.62451      5.87395     13.33282         0.294253      0.035922     -1.287733
H     10.35389     15.10445     13.33282        -0.225795     -0.160894     -1.013465
H      7.64558     10.35389      5.87395         0.966375      0.471629     -0.287444
H      7.64558     10.62451     15.10445         0.666868      0.214076      0.057386
H     13.33282     10.62451      5.87395        -1.031645      0.384649     -0.099020
H     13.33282     10.35389     15.10445        -0.625735     -0.095625      0.013896
H      5.87395      7.64558     10.35389        -0.409527      2.134373      0.369434
H     15.10445      7.64558     10.62451         0.120791      1.527731     -0.006066
H      5.87395     13.33282     10.62451        -0.159957     -1.126255     -0.380132
H     15.10445     13.33282     10.35389         0.163203     -1.243141     -0.358938
H      5.87395     10.35389      7.64558        -0.941113      0.380019      1.382692
H     15.10445     10.62451      7.64558         0.408791      0.513650      1.423436
H      5.87395     10.62451     13.33282        -1.038497      0.514759     -1.321012
H     15.10445     10.35389     13.33282         0.948362     -0.064366     -1.127103
H     10.35389      7.64558      5.87395         0.378085      1.130454     -0.119869
H     10.62451      7.64558     15.10445         0.241811      0.608411     -0.092424
H     10.62451     13.33282      5.87395        -0.552570     -1.198653     -0.152990
H     10.35389     13.33282     15.10445        -0.110831     -0.481111     -0.147227
H      7.64558      5.87395     10.35389         0.694274     -0.126709      0.023200
H      7.64558     15.10445     10.62451         0.583315     -0.138392     -0.137573
H     13.33282      5.87395     10.62451        -0.844499      0.069662      0.060157
H     13.33282     15.10445     10.35389        -0.437144     -0.080337     -0.066884
H     12.45634     12.45634     19.01126         0.255348      0.234582     -0.250777
H     19.01126     19.01126     19.01126        -0.251825     -0.248237     -0.242577
H     19.01126     12.45634     12.45634        -0.261142      0.267383      0.229205
H     12.45634     19.01126     12.45634         0.265830     -0.270974      0.220784
C     10.35284      5.61067      6.59456        -0.083017     -0.966178     -1.267362
C     10.62556     15.36773      6.59456        -0.168732      0.596099     -0.897484
C     10.62556      5.61067     14.38384        -0.282933     -0.456831      1.603977
C     10.35284     15.36773     14.38384         0.190820      0.262561      1.027859
C      6.59456     10.35284      5.61067        -1.942969      0.183373     -1.242624
C      6.59456     10.62556     15.36773        -1.032188      0.164214      0.789216
C     14.38384     10.62556      5.61067         1.723630      0.149079     -0.950949
C     14.38384     10.35284     15.36773         1.018835     -0.005761      0.624905
C      5.61067      6.59456     10.35284        -0.624012     -1.608704      0.024442
C     15.36773      6.59456     10.62556         0.418769     -0.801203     -0.017836
C      5.61067     14.38384     10.62556        -0.232353      1.164213      0.080938
C     15.36773     14.38384     10.35284         0.262748      1.384261      0.051135
C      5.61067     10.35284      6.59456        -0.500054      0.019575     -1.751072
C     15.36773     10.62556      6.59456         0.520864      0.148196     -1.311436
C      5.61067     10.62556     14.38384        -0.092490     -0.061407      1.727477
C     15.36773     10.35284     14.38384         0.050392     -0.016277      1.628460
C     10.35284      6.59456      5.61067         0.027681     -1.201998     -0.798780
C     10.62556      6.59456     15.36773         0.121959     -0.515532      0.600680
C     10.62556     14.38384      5.61067         0.136966      1.129629     -0.597018
C     10.35284     14.38384     15.36773        -0.035723      0.446314      0.434562
C      6.59456      5.61067     10.35284        -0.419764     -1.143295      0.005915
C      6.59456     15.36773     10.62556        -0.831127      0.743265     -0.037807
C     14.38384      5.61067     10.62556         0.655939     -0.800411     -0.165833
C     14.38384     15.36773     10.35284         0.415815      0.614307     -0.039958
C     10.40319      3.19606      7.29314        -0.028467      0.267545     -0.735400
C     10.35913      4.25547      6.23373        -0.050468     -0.580147      0.150486
C      0.08601      7.29314      7.29314        -0.006438     -0.385665     -0.327353
C      0.13007      6.23373      6.23373        -0.007688      0.395650      0.267037
C      0.08601      3.19606      3.19606         0.021506      0.510531      0.560446
C      0.13007      4.25547      4.25547         0.009504     -0.503660     -0.467088
C     10.40319      7.29314      3.19606        -0.057256     -0.875666      0.272337
C     10.35913      6.23373      4.25547         0.006153      0.324728     -0.609343
C      7.29314     10.40319      3.19606        -0.790981     -0.023771      0.082515
C      6.23373     10.35913      4.25547         0.347056     -0.041758     -0.417307
C      7.29314      0.08601      7.29314        -0.408109     -0.049309     -0.264331
C      6.23373      0.13007      6.23373         0.441712     -0.156918      0.324039
C      3.19606      0.08601      3.19606         0.969898     -0.016238      0.211038
C      4.25547      0.13007      4.25547        -0.469364     -0.211691     -0.541973
C      3.19606     10.40319      7.29314         0.286606     -0.005859     -0.216593
C      4.25547     10.35913      6.23373        -0.275582     -0.034211      0.365088
C      3.19606      7.29314     10.40319         0.265208     -0.429422      0.009419
C      4.25547      6.23373     10.35913        -0.834004      0.129127      0.074371
C      7.29314      7.29314      0.08601        -0.420171     -0.344333      0.003232
C      6.23373      6.23373      0.13007         0.720803      0.127377      0.017341
C      3.19606      3.19606      0.08601         0.764612      0.317725      0.009688
C      4.25547      4.25547      0.13007        -0.391472     -0.600467     -0.020001
C      7.29314      3.19606     10.40319        -0.324224      0.392457      0.020632
C      6.23373      4.25547     10.35913         0.430134     -0.431529      0.064209
O     10.43466      3.58206      8.50569         0.081410      0.221720      0.667116
O     10.54374     17.39634      8.50569         0.015761     -0.165356      0.449185
O     10.54374      3.58206     12.47271         0.099458      0.153144     -0.536281
O     10.43466     17.39634     12.47271        -0.024732     -0.071072     -0.349376
O      8.50569     10.43466      3.58206         0.676733     -0.126745      0.230138
O      8.50569     10.54374     17.39634         0.559561     -0.001226     -0.225444
O     12.47271     10.54374      3.58206        -0.834391      0.067256      0.274927
O     12.47271     10.43466     17.39634        -0.470436      0.004054     -0.210545
O      3.58206      8.50569     10.43466         0.171118      0.574929     -0.021781
O     17.39634      8.50569     10.54374        -0.150739      0.482687      0.039691
O      3.58206     12.47271     10.54374         0.075835     -0.389105      0.028016
O     17.39634     12.47271     10.43466        -0.175208     -0.513035     -0.027274
O      3.58206     10.43466      8.50569         0.174402     -0.019527      0.375153
O     17.39634     10.54374      8.50569        -0.148879      0.056929      0.395386
O      3.58206     10.54374     12.47271        -0.002287      0.047478     -0.199647
O     17.39634     10.43466     12.47271        -0.048477     -0.007835     -0.186423
O     10.43466      8.50569      3.58206        -0.096483      0.720414      0.159263
O     10.54374      8.50569     17.39634         0.001595      0.547909     -0.188772
O     10.54374     12.47271      3.58206         0.035215     -0.504696      0.056344
O     10.43466     12.47271     17.39634        -0.024888     -0.398036     -0.080679
O      8.50569      3.58206     10.43466         0.559662      0.137192     -0.034485
O      8.50569     17.39634     10.54374         0.587448     -0.189565      0.046950
O     12.47271      3.58206     10.54374        -0.749018      0.192679      0.035774
O     12.47271     17.39634     10.43466        -0.508673     -0.138711     -0.023586
O     11.90042     11.90042     19.56718        -0.295279     -0.251528      0.294315
O     19.56718     19.56718     19.56718         0.299476      0.306291      0.291576
O     19.56718     11.90042     11.90042         0.317909     -0.302017     -0.219579
O     11.90042     19.56718     11.90042        -0.309295      0.330454     -0.199717
O      9.45224      1.03696      9.45224        -0.022048      0.101356     -0.048151
O      1.03696      9.45224      9.45224         0.057751     -0.021423     -0.055370
O      1.03696      1.03696      1.03696         0.051068      0.096894      0.114743
O      9.45224      9.45224      1.03696        -0.054312     -0.034021      0.143989
Zr     10.48920      2.52580     10.48920        -0.199920     -0.294557     -0.017890
Zr     10.48920     18.45260     10.48920         0.083812      0.095219     -0.104476
Zr     10.48920     10.48920      2.52580        -0.025492      0.056858     -0.378674
Zr     10.48920     10.48920     18.45260        -0.007269     -0.062674      0.191063
Zr      2.52580     10.48920     10.48920        -0.101937     -0.115250     -0.094297
Zr     18.45260     10.48920     10.48920         0.089807     -0.005283     -0.104044
Pd     11.76141      8.60052     10.23577         0.305099     -0.074045      0.109575
Pd      7.01718     10.19930     10.32128         0.158043     -0.058268      0.096396
Pd      7.23779     12.63716     11.71348        -0.028034     -0.139200     -0.064338
Pd     11.87165     13.25237      7.33487         0.107189      0.055470     -0.096713
Pd     11.36761      8.32419      7.44666         0.215433      0.111996      0.107731
Pd      8.78958      7.09089      7.40988         0.156418      0.149281     -0.182826
Pd     11.43511     10.92415      5.91941         0.149039     -0.026738      0.356515
Pd     13.48981      9.69102      7.63423        -0.049646     -0.247698     -0.056298
Pd      9.33038     11.82748      7.29178         0.065921      0.069423      0.083538
Pd      7.05436      7.79086     11.79592         0.270665      0.136626      0.076091
Pd      6.83739      7.73004      8.83891        -0.110892     -0.104646      0.153573
Pd      7.45644     10.15343     12.89035         0.112235     -0.262674     -0.208717
Pd     11.54461      6.12336      9.02674         0.015466      0.053615      0.092671
Pd      9.31133      9.38457      5.89452         0.177735      0.113905      0.096613
Pd      9.23878     14.14125      8.69768         0.051886     -0.154766      0.092885
Pd     11.50702      6.26068     11.67641         0.064345      0.226751      0.074683
Pd      9.57187      9.30445      9.00198         0.219953     -0.097573     -0.187213
Pd      9.22859     11.79129     10.06574        -0.021965      0.193474      0.225748
Pd      9.35017      7.06075     10.28098        -0.137339     -0.056971     -0.000953
Pd      9.19467      7.16619     13.13139        -0.084050      0.274748     -0.082337
Pd      9.46393      9.44262     11.53328        -0.155100     -0.083581      0.605946
Pd     11.50128     11.03754      8.76682         0.349738     -0.245013     -0.161101
Pd      7.01278     12.56714      8.74127         0.173665     -0.201117      0.175919
Pd      7.56640      9.93267      7.83830        -0.294278      0.287030     -0.079705
Pd     13.91108      7.46667      8.91741        -0.147076     -0.118612      0.132767
Pd     13.75988      7.88570     11.99566         0.108467     -0.101080     -0.060570
Pd      9.41805     11.97104     12.92197         0.110928     -0.091318      0.030915
Pd     13.93014     12.42833      8.72623        -0.090481     -0.175054     -0.028891
Pd     13.47406     10.42811     12.75381        -0.083686      0.114396     -0.029750
Pd     13.89114     10.16924     10.18273        -0.023273     -0.194127      0.144947
Pd     11.46227     11.16363     11.40060         0.180693      0.076099      0.160079
Pd     11.53997     13.48478      9.98165         0.093531     -0.055681      0.119836
Pd     13.72189     12.68348     11.42145        -0.194955     -0.106279      0.156148
Pd     11.68213     13.57434     12.82138        -0.035720     -0.137462     -0.034528
Pd     11.53285     11.29919     14.30972        -0.016406      0.019993      0.017153
Pd     11.52701      8.70415     13.02123        -0.258029      0.041860      0.112054
Pd      9.45828      9.57930     14.46596         0.213178     -0.046291      0.053491
Pd      9.41735     14.26050     11.37906         0.038995     -0.229404      0.036980
