26
# total energy = -205.61063350 eVC      0.70318      1.25122      7.50000         0.011619      0.002227      0.000000
C     10.79564      6.56642      7.50000         0.016276      0.000221      0.000000
C      0.73813     11.42945      7.50000         0.001442     -0.011087      0.000000
C     11.53097      5.33420      7.50000        -0.011619     -0.002227      0.000000
C      1.43851      0.01900      7.50000        -0.016276     -0.000221      0.000000
C     11.49602     -4.84403      7.50000        -0.001442      0.011087      0.000000
C     10.79631     -3.65021      7.50000        -0.003908      0.011007     -0.000000
C     10.85591      4.12604      7.50000         0.007853     -0.009790     -0.000000
C      2.82718      0.04353      7.50000        -0.033944     -0.000304      0.000000
C      1.43784     10.23563      7.50000         0.003908     -0.011007      0.000000
C      1.37824      2.45938      7.50000        -0.007853      0.009790     -0.000000
C      9.40697      6.54190      7.50000         0.033944      0.000304      0.000000
N      7.76470      0.25936      7.50000        -0.003733      0.010039      0.000000
N      4.46945      6.32606      7.50000         0.003733     -0.010039      0.000000
N      4.00928      0.08408      7.50000         0.027503     -0.002948     -0.000000
N     10.23045     -2.61106      7.50000        -0.003270      0.014464      0.000000
N     10.29650      3.08350      7.50000        -0.011876     -0.020586     -0.000000
N      8.22487      6.50134      7.50000        -0.027503      0.002948      0.000000
N      2.00370      9.19648      7.50000         0.003270     -0.014464      0.000000
N      1.93765      3.50192      7.50000         0.011876      0.020586     -0.000000
Ir      2.99118      7.53252      7.50000         0.011013     -0.004173     -0.000000
Ir      2.98034      5.13111      7.50000         0.009286     -0.000150     -0.000000
Ir      6.29740      6.40886      7.50000        -0.006381     -0.001647      0.000000
Ir      9.24297     -0.94710      7.50000        -0.011013      0.004173     -0.000000
Ir      9.25381      1.45431      7.50000        -0.009286      0.000150     -0.000000
Ir      5.93675      0.17656      7.50000         0.006381      0.001647      0.000000
