152
# total energy = -1060.01354372 eVH     10.35389      5.87395      7.64558        -0.261809      0.002267      1.143619
H     10.62451     15.10445      7.64558         0.044310     -0.091060      0.925318
H     10.62451      5.87395     13.33282        -0.237402      0.088518     -0.788133
H     10.35389     15.10445     13.33282         0.097923     -0.297250     -0.896556
H      7.64558     10.35389      5.87395         0.930841     -0.113640      0.182639
H      7.64558     10.62451     15.10445         0.336711     -0.044217     -0.076714
H     13.33282     10.62451      5.87395        -0.871788      0.212110      0.202793
H     13.33282     10.35389     15.10445        -0.277282     -0.011450     -0.068644
H      5.87395      7.64558     10.35389         0.089000      0.413874     -0.015714
H     15.10445      7.64558     10.62451         0.013324      0.512721     -0.033082
H      5.87395     13.33282     10.62451        -0.017630     -0.963352      0.077074
H     15.10445     13.33282     10.35389        -0.078999     -0.319919      0.004388
H      5.87395     10.35389      7.64558         0.270875      0.118275      0.417139
H     15.10445     10.62451      7.64558        -0.125931     -0.175103      0.650944
H      5.87395     10.62451     13.33282        -0.090093      0.458646     -0.616429
H     15.10445     10.35389     13.33282         0.264410     -0.653234     -0.812424
H     10.35389      7.64558      5.87395        -0.046036      0.481495      0.331026
H     10.62451      7.64558     15.10445         0.219543      0.749365     -0.046722
H     10.62451     13.33282      5.87395         0.121931     -0.562110      0.204951
H     10.35389     13.33282     15.10445         0.045119     -0.286181     -0.134410
H      7.64558      5.87395     10.35389         0.339198      0.093150      0.015046
H      7.64558     15.10445     10.62451         0.369557     -0.113412      0.156595
H     13.33282      5.87395     10.62451        -0.318241      0.126975     -0.037107
H     13.33282     15.10445     10.35389        -0.652665     -0.134128      0.144669
H     12.45634     12.45634     19.01126         0.254755      0.270578     -0.229639
H     19.01126     19.01126     19.01126        -0.245778     -0.268705     -0.245265
H     19.01126     12.45634     12.45634        -0.251767      0.269098      0.235126
H     12.45634     19.01126     12.45634         0.290499     -0.236075      0.234076
C     10.35284      5.61067      6.59456         0.396433     -0.429469     -1.462285
C     10.62556     15.36773      6.59456        -0.160833      0.569449     -0.627973
C     10.62556      5.61067     14.38384         0.387103     -0.348773      0.846453
C     10.35284     15.36773     14.38384        -0.234702      0.223310      1.108523
C      6.59456     10.35284      5.61067        -1.375958      0.018684     -0.246250
C      6.59456     10.62556     15.36773        -0.654634      0.059751      0.383076
C     14.38384     10.62556      5.61067         1.306111     -0.173900     -0.619764
C     14.38384     10.35284     15.36773         0.377919     -0.122139      0.357938
C      5.61067      6.59456     10.35284        -0.295844     -0.621618     -0.011754
C     15.36773      6.59456     10.62556         0.421198     -1.004791      0.029501
C      5.61067     14.38384     10.62556        -0.121661      1.160855     -0.181123
C     15.36773     14.38384     10.35284         0.456127      0.645774     -0.025892
C      5.61067     10.35284      6.59456        -0.364762     -0.101595     -0.711149
C     15.36773     10.62556      6.59456         0.419662      0.121086     -0.750690
C      5.61067     10.62556     14.38384        -0.384121     -0.175048      1.225007
C     15.36773     10.35284     14.38384         0.283894      0.193427      1.513781
C     10.35284      6.59456      5.61067        -0.050200     -0.711282     -0.630347
C     10.62556      6.59456     15.36773        -0.091393     -0.828446      0.345355
C     10.62556     14.38384      5.61067        -0.456195      0.418124     -0.696812
C     10.35284     14.38384     15.36773        -0.152884      0.587245      0.411409
C      6.59456      5.61067     10.35284        -0.500302     -0.338854      0.041208
C      6.59456     15.36773     10.62556        -0.396954      0.468182      0.049980
C     14.38384      5.61067     10.62556         0.449495     -0.388228      0.005510
C     14.38384     15.36773     10.35284         1.121670      0.504243     -0.071287
C     10.40319      3.19606      7.29314         0.001906      0.636077     -0.337182
C     10.35913      4.25547      6.23373         0.002735     -0.445032      0.291284
C      0.08601      7.29314      7.29314        -0.013303     -0.356076     -0.496247
C      0.13007      6.23373      6.23373        -0.079912      0.826423      0.061317
C      0.08601      3.19606      3.19606        -0.001626      0.669785      0.270323
C      0.13007      4.25547      4.25547         0.022666     -0.270334     -0.522645
C     10.40319      7.29314      3.19606        -0.067423     -1.156616      0.552313
C     10.35913      6.23373      4.25547        -0.038205      0.373552     -0.194555
C      7.29314     10.40319      3.19606        -1.084570     -0.058344      0.184947
C      6.23373     10.35913      4.25547         0.363598      0.081538     -0.537289
C      7.29314      0.08601      7.29314        -0.409803      0.034146     -0.564006
C      6.23373      0.13007      6.23373         0.178692      0.132830      0.131468
C      3.19606      0.08601      3.19606         0.697488      0.024267      0.164518
C      4.25547      0.13007      4.25547        -0.169203     -0.052973     -0.366753
C      3.19606     10.40319      7.29314         0.384679     -0.024648     -0.865756
C      4.25547     10.35913      6.23373        -0.163163     -0.084828      0.095857
C      3.19606      7.29314     10.40319         0.599664     -0.385828      0.001448
C      4.25547      6.23373     10.35913        -0.118842      0.180634      0.000090
C      7.29314      7.29314      0.08601        -0.402486     -0.328357     -0.015124
C      6.23373      6.23373      0.13007         0.200332      0.193629     -0.056987
C      3.19606      3.19606      0.08601         0.290963      0.479708     -0.023273
C      4.25547      4.25547      0.13007        -0.398547     -0.226673     -0.029702
C      7.29314      3.19606     10.40319        -0.282362      0.589272     -0.013709
C      6.23373      4.25547     10.35913         0.002855     -0.126313      0.022061
O     10.43466      3.58206      8.50569        -0.030313      0.104570      0.331221
O     10.54374     17.39634      8.50569         0.066603     -0.134530      0.591533
O     10.54374      3.58206     12.47271         0.026963      0.107967     -0.390246
O     10.43466     17.39634     12.47271         0.088680     -0.045504     -0.364047
O      8.50569     10.43466      3.58206         0.714506     -0.060415      0.013838
O      8.50569     10.54374     17.39634         0.450104      0.054246     -0.070340
O     12.47271     10.54374      3.58206        -0.652272      0.113308      0.204158
O     12.47271     10.43466     17.39634        -0.288645     -0.004957      0.012042
O      3.58206      8.50569     10.43466         0.045501      0.461862     -0.065470
O     17.39634      8.50569     10.54374        -0.061861      0.462164      0.054988
O      3.58206     12.47271     10.54374         0.113340     -0.584373      0.003053
O     17.39634     12.47271     10.43466        -0.167372     -0.737266     -0.061612
O      3.58206     10.43466      8.50569         0.217486     -0.063708      0.778494
O     17.39634     10.54374      8.50569        -0.117526      0.077620      0.598883
O      3.58206     10.54374     12.47271         0.000521     -0.001288     -0.270436
O     17.39634     10.43466     12.47271         0.043266     -0.013615     -0.211422
O     10.43466      8.50569      3.58206        -0.104620      0.575712     -0.115245
O     10.54374      8.50569     17.39634         0.064319      0.502795     -0.100533
O     10.54374     12.47271      3.58206         0.104825     -0.622907      0.134179
O     10.43466     12.47271     17.39634        -0.061493     -0.626782     -0.238082
O      8.50569      3.58206     10.43466         0.399259      0.029101     -0.031818
O      8.50569     17.39634     10.54374         0.627685     -0.152327      0.050505
O     12.47271      3.58206     10.54374        -0.508783      0.126536      0.037529
O     12.47271     17.39634     10.43466        -0.621807     -0.139793      0.035974
O     11.90042     11.90042     19.56718        -0.274645     -0.308630      0.237385
O     19.56718     19.56718     19.56718         0.301688      0.318949      0.299531
O     19.56718     11.90042     11.90042         0.285291     -0.324898     -0.230570
O     11.90042     19.56718     11.90042        -0.317956      0.230254     -0.201798
O      9.45224      1.03696      9.45224        -0.084930      0.082352     -0.066686
O      1.03696      9.45224      9.45224         0.098734     -0.116662     -0.044434
O      1.03696      1.03696      1.03696         0.081950      0.055058      0.100020
O      9.45224      9.45224      1.03696        -0.059903     -0.131134      0.130980
Zr     10.48920      2.52580     10.48920         0.032659     -0.087059      0.064802
Zr     10.48920     18.45260     10.48920        -0.169785      0.262625     -0.343523
Zr     10.48920     10.48920      2.52580         0.123348      0.355587     -0.355579
Zr     10.48920     10.48920     18.45260        -0.079552     -0.190888      0.172034
Zr      2.52580     10.48920     10.48920        -0.252407      0.124145      0.219376
Zr     18.45260     10.48920     10.48920         0.230691     -0.111090      0.008665
Pd      9.38566     14.21679      9.39545         0.008810      0.054123     -0.038117
Pd      8.63272     13.71291     12.98458        -0.007527     -0.013911     -0.003743
Pd     12.01437     14.41483      8.75755         0.021093      0.003750     -0.015391
Pd     12.78422     12.79669     10.60778        -0.017267      0.023537      0.023953
Pd     12.17031      7.09843     12.60278        -0.027427      0.017917      0.020986
Pd     11.24547     14.79806     11.53753        -0.043136      0.040639     -0.034250
Pd     10.11605     12.45935     11.15662        -0.040454      0.037582     -0.052035
Pd     13.47558     12.13501      7.97162         0.007737      0.000239      0.013003
Pd     11.47298     11.55087      6.11869         0.010019      0.007383     -0.011368
Pd      7.84097      8.58941      7.55720         0.020407     -0.035899     -0.015569
Pd      8.74562     11.72502      6.90201        -0.008218      0.005283     -0.017580
Pd     10.31548      9.45319      8.13326        -0.006041      0.017325      0.016660
Pd      8.50732     14.42401      6.88073         0.005831      0.011525     -0.038245
Pd     12.37736      9.02871      6.57450        -0.011347      0.009054      0.015507
Pd      9.74146      9.60511      5.55021         0.002067      0.000327      0.008489
Pd      6.88533      9.46326     12.19239        -0.016463      0.003594      0.000487
Pd     12.21127      6.67301      7.84743        -0.004106      0.015795      0.025447
Pd      5.96526     10.49126      9.74193        -0.014283     -0.033752     -0.020608
Pd      7.56848      7.09510     13.18461         0.016050      0.047618      0.082254
Ir     11.83616      9.68866     13.06201        -0.023419      0.003774     -0.009047
Ir     13.59456      8.98011     11.42885        -0.016509      0.012072      0.023572
Ir      9.42621      8.81116     13.81280         0.002332      0.007093      0.065677
Ir     10.57789     10.91353     14.84944        -0.011905     -0.003383      0.044655
Ir      7.31531     12.04921     11.37664        -0.019093     -0.022521      0.002537
Ir     14.70631     10.81742     10.06125        -0.010074      0.015878      0.036440
Ir     12.20780     10.45468      9.64915        -0.013146      0.046000      0.012711
Ir      8.77895     11.04899     13.04290        -0.007064      0.010970     -0.031430
Ir     10.16309      9.83076     11.25143        -0.021123      0.017618     -0.034123
Ir     13.80654     11.35293     12.37970        -0.044795      0.006325      0.029522
Ir     11.71454     12.29073     13.12165        -0.070332      0.004570     -0.010796
Ir      8.54796     11.05976      9.40628        -0.011098      0.008596     -0.022000
Ir     11.60054      7.95963     10.04979        -0.018404      0.003399      0.018281
Ir      7.22365     12.96633      8.69307         0.018883      0.030428      0.009009
Ir      9.51030      6.99863      9.07484         0.005937      0.018749      0.034771
Ir      8.08676      8.73553     10.11615        -0.008809     -0.003915     -0.011869
Ir     10.76855     12.07868      8.55381        -0.004957      0.010570     -0.013871
Ir      9.59634      7.38747     11.63057        -0.017061      0.049638      0.012142
Ir     13.70491      8.66734      8.78872         0.003467      0.025923      0.007214
