152
# total energy = -1061.44954149 eVH     10.35389      5.87395      7.64558        -0.183114      0.122642      1.025365
H     10.62451     15.10445      7.64558         0.438291     -0.113893      0.757106
H     10.62451      5.87395     13.33282        -0.100073      0.096175     -0.462022
H     10.35389     15.10445     13.33282         0.095406     -0.183303     -0.397293
H      7.64558     10.35389      5.87395         0.921057      0.199031      0.208673
H      7.64558     10.62451     15.10445         0.209214     -0.021589     -0.071710
H     13.33282     10.62451      5.87395        -0.613688     -0.045430      0.162871
H     13.33282     10.35389     15.10445        -0.325351     -0.062525     -0.068446
H      5.87395      7.64558     10.35389         0.129531      0.361348     -0.075113
H     15.10445      7.64558     10.62451        -0.137861      0.471604      0.194001
H      5.87395     13.33282     10.62451         0.109661     -0.621483      0.091458
H     15.10445     13.33282     10.35389        -0.232102     -0.433818      0.091743
H      5.87395     10.35389      7.64558         0.155537      0.265852      0.378139
H     15.10445     10.62451      7.64558        -0.131623     -0.401468      0.764488
H      5.87395     10.62451     13.33282         0.034410      0.150326     -0.699622
H     15.10445     10.35389     13.33282         0.094058     -0.267975     -0.758776
H     10.35389      7.64558      5.87395        -0.138529      0.440147      0.222888
H     10.62451      7.64558     15.10445         0.366913      0.612580     -0.118378
H     10.62451     13.33282      5.87395         0.111113     -0.570265      0.104365
H     10.35389     13.33282     15.10445         0.260702     -0.733332     -0.080159
H      7.64558      5.87395     10.35389         0.476654      0.145732     -0.153491
H      7.64558     15.10445     10.62451         0.401972     -0.153297      0.404446
H     13.33282      5.87395     10.62451        -0.383401      0.158000     -0.072369
H     13.33282     15.10445     10.35389        -0.580599     -0.290090      0.120769
H     12.45634     12.45634     19.01126         0.231752      0.264934     -0.247998
H     19.01126     19.01126     19.01126        -0.260697     -0.259744     -0.229857
H     19.01126     12.45634     12.45634        -0.233772      0.274703      0.237300
H     12.45634     19.01126     12.45634         0.276856     -0.211281      0.254675
C     10.35284      5.61067      6.59456         0.284124     -0.299211     -0.800632
C     10.62556     15.36773      6.59456        -0.216766      0.635838     -0.241329
C     10.62556      5.61067     14.38384         0.254808     -0.254909      0.493200
C     10.35284     15.36773     14.38384        -0.112119      0.273482      0.254334
C      6.59456     10.35284      5.61067        -0.868991     -0.103851     -0.240802
C      6.59456     10.62556     15.36773        -0.512188      0.043260      0.343307
C     14.38384     10.62556      5.61067         0.797528     -0.042275     -0.646116
C     14.38384     10.35284     15.36773         0.263786     -0.080286      0.362279
C      5.61067      6.59456     10.35284        -0.397380     -0.357347      0.076081
C     15.36773      6.59456     10.62556         0.300599     -0.519842     -0.084005
C      5.61067     14.38384     10.62556        -0.147167      0.525055     -0.366539
C     15.36773     14.38384     10.35284         0.418653      0.841768     -0.098078
C      5.61067     10.35284      6.59456        -0.315513     -0.153617     -0.101619
C     15.36773     10.62556      6.59456         0.225027      0.299715     -0.597377
C      5.61067     10.62556     14.38384        -0.334917     -0.041819      1.199565
C     15.36773     10.35284     14.38384         0.286012     -0.052950      1.019559
C     10.35284      6.59456      5.61067         0.082754     -0.258087     -0.506298
C     10.62556      6.59456     15.36773         0.013925     -0.784390      0.150957
C     10.62556     14.38384      5.61067        -0.386524      0.153713     -0.888095
C     10.35284     14.38384     15.36773        -0.259615      0.864644      0.265314
C      6.59456      5.61067     10.35284        -0.346426     -0.284824      0.254851
C      6.59456     15.36773     10.62556        -0.330810      0.538705     -0.033950
C     14.38384      5.61067     10.62556         0.462993     -0.361637      0.061202
C     14.38384     15.36773     10.35284         0.964798      0.266118     -0.061380
C     10.40319      3.19606      7.29314         0.006613      0.554003     -0.317558
C     10.35913      4.25547      6.23373        -0.013332     -0.525430      0.429948
C      0.08601      7.29314      7.29314        -0.013465     -0.860583     -0.555585
C      0.13007      6.23373      6.23373        -0.176351      0.864783      0.143206
C      0.08601      3.19606      3.19606        -0.012293      0.399318      0.380893
C      0.13007      4.25547      4.25547         0.059981     -0.208018     -0.588719
C     10.40319      7.29314      3.19606        -0.049252     -1.075013      0.755855
C     10.35913      6.23373      4.25547         0.011215      0.345435     -0.215744
C      7.29314     10.40319      3.19606        -1.263462     -0.082970      0.325574
C      6.23373     10.35913      4.25547         0.274105      0.021509     -0.706611
C      7.29314      0.08601      7.29314        -0.834835     -0.001090     -0.413942
C      6.23373      0.13007      6.23373         0.335611      0.055972      0.129020
C      3.19606      0.08601      3.19606         0.327124      0.000512      0.430572
C      4.25547      0.13007      4.25547        -0.287028     -0.034903     -0.182249
C      3.19606     10.40319      7.29314         0.498457     -0.042073     -1.018187
C      4.25547     10.35913      6.23373        -0.313808     -0.072392      0.100778
C      3.19606      7.29314     10.40319         1.068393     -0.452822      0.007536
C      4.25547      6.23373     10.35913        -0.192101      0.166194     -0.003269
C      7.29314      7.29314      0.08601        -0.478698     -0.280560     -0.007302
C      6.23373      6.23373      0.13007         0.190074      0.139106     -0.148165
C      3.19606      3.19606      0.08601         0.350434      0.855507     -0.007865
C      4.25547      4.25547      0.13007        -0.538790     -0.190817      0.043167
C      7.29314      3.19606     10.40319        -0.195786      0.507760      0.025553
C      6.23373      4.25547     10.35913        -0.010904     -0.363142      0.044763
O     10.43466      3.58206      8.50569        -0.022217      0.133542      0.387594
O     10.54374     17.39634      8.50569         0.041903      0.053374      0.362097
O     10.54374      3.58206     12.47271         0.041943      0.195191     -0.571859
O     10.43466     17.39634     12.47271         0.027439     -0.005468     -0.442034
O      8.50569     10.43466      3.58206         0.759508     -0.063228      0.003339
O      8.50569     10.54374     17.39634         0.853685      0.022747     -0.161070
O     12.47271     10.54374      3.58206        -0.347473      0.038482      0.077964
O     12.47271     10.43466     17.39634        -0.381617     -0.035709      0.036974
O      3.58206      8.50569     10.43466        -0.099006      0.271945     -0.076878
O     17.39634      8.50569     10.54374        -0.110177      0.445781      0.040840
O      3.58206     12.47271     10.54374         0.145932     -0.807655     -0.018278
O     17.39634     12.47271     10.43466        -0.241816     -0.639556     -0.013885
O      3.58206     10.43466      8.50569         0.127620     -0.033999      0.787770
O     17.39634     10.54374      8.50569         0.004163      0.034765      0.338574
O      3.58206     10.54374     12.47271         0.067346      0.017667     -0.461288
O     17.39634     10.43466     12.47271         0.038448      0.012956     -0.251167
O     10.43466      8.50569      3.58206        -0.058793      0.590678     -0.066262
O     10.54374      8.50569     17.39634         0.026574      0.875732     -0.205364
O     10.54374     12.47271      3.58206         0.067948     -0.368968      0.079507
O     10.43466     12.47271     17.39634        -0.056115     -0.642763     -0.198556
O      8.50569      3.58206     10.43466         0.344619      0.079331     -0.052809
O      8.50569     17.39634     10.54374         0.548918     -0.159482     -0.010785
O     12.47271      3.58206     10.54374        -0.366632      0.054536      0.034456
O     12.47271     17.39634     10.43466        -0.833783     -0.148560      0.065910
O     11.90042     11.90042     19.56718        -0.245131     -0.282361      0.237470
O     19.56718     19.56718     19.56718         0.298684      0.294878      0.250490
O     19.56718     11.90042     11.90042         0.229553     -0.304415     -0.278551
O     11.90042     19.56718     11.90042        -0.274784      0.179981     -0.273372
O      9.45224      1.03696      9.45224        -0.110543      0.089912     -0.084305
O      1.03696      9.45224      9.45224         0.126834     -0.147657     -0.170508
O      1.03696      1.03696      1.03696         0.137759      0.206534     -0.001934
O      9.45224      9.45224      1.03696        -0.210593     -0.169472      0.031872
Zr     10.48920      2.52580     10.48920        -0.002569     -0.232591      0.151286
Zr     10.48920     18.45260     10.48920        -0.304255      0.305941     -0.157939
Zr     10.48920     10.48920      2.52580         0.344563      0.409243     -0.231226
Zr     10.48920     10.48920     18.45260         0.002780      0.015013      0.469804
Zr      2.52580     10.48920     10.48920        -0.553780      0.027642      0.333440
Zr     18.45260     10.48920     10.48920         0.276894     -0.148017      0.006281
Pd      9.18756     14.61897      9.21030         0.006462      0.010042      0.013765
Pd      8.48094     13.22241     13.82374        -0.026411      0.008246      0.026318
Pd     12.16895     14.10122      8.65264        -0.035533      0.003799      0.009123
Pd     12.25885     12.75030     10.90702        -0.003362      0.015249     -0.009234
Pd     11.79333      7.09152     11.91441         0.009409     -0.027638     -0.007562
Pd     11.16257     15.30364     10.89986         0.008536      0.015475     -0.005044
Pd      9.62378     13.15933     11.41696         0.005388     -0.001509     -0.041962
Pd     14.04879     12.38372      7.96037        -0.020320      0.003257      0.013873
Pd     11.58457     11.76850      6.75537         0.011971      0.004318     -0.000140
Pd      7.47404      8.55026      7.18102        -0.026519     -0.016316     -0.010409
Pd      8.63291     12.05280      6.90997        -0.008269      0.023558     -0.010195
Pd      9.75397      9.89463      8.00744        -0.018238     -0.025796      0.029091
Pd      8.47807     14.69694      6.56531         0.013588      0.027878      0.000387
Pd     12.06035      9.05511      6.84972        -0.003198     -0.005956      0.006932
Pd      9.93512     10.01718      5.40585        -0.012891      0.001049     -0.008478
Pd      6.91722      9.23136     12.16960        -0.019702     -0.020962      0.000142
Pd     12.41293      6.52004      7.68241        -0.011444      0.030568     -0.004243
Pd      5.57666     10.68190     10.11568         0.013237     -0.010448     -0.012212
Pd      7.56810      6.67588     12.70254         0.015932      0.004520     -0.000338
Ir     11.29400      9.54900     12.84998         0.016081      0.024416      0.021637
Ir     13.08952      9.24173     11.09357         0.012358      0.009877     -0.063407
Ir      9.15865      8.43272     13.75399        -0.014231     -0.029740      0.000575
Ir     10.28086     10.37615     15.07768        -0.005013     -0.006237     -0.000454
Ir      7.11560     11.91386     11.84504        -0.031011      0.014301      0.005868
Ir     14.42146     11.19793     10.32540        -0.019983     -0.016394      0.011896
Ir     12.28987     10.62293      9.06562         0.023192     -0.052317     -0.000199
Ir      8.93883     10.80273     12.89698         0.021366      0.006047      0.033780
Ir     10.03525     10.27888     10.62713        -0.012439      0.004342     -0.031205
Ir     13.31816     11.20741     12.62361        -0.022007      0.004269     -0.004845
Ir     11.11023     12.04780     13.34612         0.010816     -0.028213     -0.018116
Ir      7.96344     11.72156      9.51618         0.012103     -0.026321      0.006101
Ir     11.29408      8.14971      9.45665        -0.000019      0.006033      0.006380
Ir      6.96862     13.54450      8.34103        -0.003762      0.033673     -0.001516
Ir      9.07517      7.29028      8.79198         0.017663     -0.020823      0.007466
Ir      7.75070      9.20699      9.70754        -0.017543      0.036125      0.004841
Ir     10.37110     12.32727      8.99196         0.002717      0.046180     -0.003893
Ir      9.33477      7.88845     11.25234        -0.025964     -0.000155      0.008498
Ir     13.75767      8.46077      8.80751        -0.017597      0.028515      0.010027
