152
# total energy = -1060.24944848 eVH     10.35389      5.87395      7.64558        -0.172972      0.125464      0.998794
H     10.62451     15.10445      7.64558         0.275847     -0.088680      0.809198
H     10.62451      5.87395     13.33282        -0.269090      0.083807     -0.732378
H     10.35389     15.10445     13.33282         0.143580     -0.277735     -0.773897
H      7.64558     10.35389      5.87395         0.891108     -0.242834      0.203868
H      7.64558     10.62451     15.10445         0.274032     -0.006549     -0.064342
H     13.33282     10.62451      5.87395        -0.831439      0.127781      0.192568
H     13.33282     10.35389     15.10445        -0.293208     -0.054994     -0.048243
H      5.87395      7.64558     10.35389         0.098529      0.425813     -0.000230
H     15.10445      7.64558     10.62451        -0.075798      0.473189      0.052989
H      5.87395     13.33282     10.62451         0.016631     -0.931071      0.099958
H     15.10445     13.33282     10.35389        -0.151947     -0.367303      0.017473
H      5.87395     10.35389      7.64558         0.316351      0.053073      0.362092
H     15.10445     10.62451      7.64558        -0.122011     -0.134172      0.609597
H      5.87395     10.62451     13.33282        -0.057143      0.429118     -0.661946
H     15.10445     10.35389     13.33282         0.165727     -0.484226     -0.933644
H     10.35389      7.64558      5.87395         0.011160      0.477510      0.329878
H     10.62451      7.64558     15.10445         0.349872      0.810473     -0.039722
H     10.62451     13.33282      5.87395         0.098860     -0.565632      0.201232
H     10.35389     13.33282     15.10445         0.085012     -0.330519     -0.148409
H      7.64558      5.87395     10.35389         0.381561      0.125112      0.056768
H      7.64558     15.10445     10.62451         0.379338     -0.130252      0.197951
H     13.33282      5.87395     10.62451        -0.313545      0.132690     -0.006538
H     13.33282     15.10445     10.35389        -0.665490     -0.162481      0.206092
H     12.45634     12.45634     19.01126         0.263458      0.272229     -0.220755
H     19.01126     19.01126     19.01126        -0.254215     -0.265248     -0.238913
H     19.01126     12.45634     12.45634        -0.245175      0.272234      0.236919
H     12.45634     19.01126     12.45634         0.293216     -0.229651      0.236336
C     10.35284      5.61067      6.59456         0.347293     -0.379193     -1.323501
C     10.62556     15.36773      6.59456        -0.236701      0.660488     -0.700304
C     10.62556      5.61067     14.38384         0.356798     -0.267119      0.732225
C     10.35284     15.36773     14.38384        -0.183229      0.316823      0.942042
C      6.59456     10.35284      5.61067        -1.325950      0.023527     -0.190359
C      6.59456     10.62556     15.36773        -0.609969      0.064784      0.348435
C     14.38384     10.62556      5.61067         1.408692     -0.173832     -0.629729
C     14.38384     10.35284     15.36773         0.339897     -0.130158      0.387320
C      5.61067      6.59456     10.35284        -0.263697     -0.632019     -0.020150
C     15.36773      6.59456     10.62556         0.408235     -0.842521     -0.033684
C      5.61067     14.38384     10.62556        -0.162769      1.105862     -0.179214
C     15.36773     14.38384     10.35284         0.459497      0.723198     -0.045901
C      5.61067     10.35284      6.59456        -0.362211     -0.127975     -0.728656
C     15.36773     10.62556      6.59456         0.338947      0.124521     -0.584957
C      5.61067     10.62556     14.38384        -0.337151     -0.145868      1.243615
C     15.36773     10.35284     14.38384         0.171598      0.212130      1.315298
C     10.35284      6.59456      5.61067        -0.066033     -0.681237     -0.437179
C     10.62556      6.59456     15.36773        -0.144873     -1.047394      0.371488
C     10.62556     14.38384      5.61067        -0.498500      0.379676     -0.721719
C     10.35284     14.38384     15.36773        -0.158915      0.651329      0.489502
C      6.59456      5.61067     10.35284        -0.548335     -0.326015      0.020378
C      6.59456     15.36773     10.62556        -0.294036      0.432416      0.082910
C     14.38384      5.61067     10.62556         0.442993     -0.317130      0.011647
C     14.38384     15.36773     10.35284         1.132642      0.437552     -0.119354
C     10.40319      3.19606      7.29314        -0.011212      0.916103     -0.362412
C     10.35913      4.25547      6.23373         0.014347     -0.332977      0.321390
C      0.08601      7.29314      7.29314        -0.018206     -0.468063     -0.510235
C      0.13007      6.23373      6.23373        -0.061987      0.810757      0.100692
C      0.08601      3.19606      3.19606        -0.009267      0.649534      0.246633
C      0.13007      4.25547      4.25547         0.067984     -0.253928     -0.554333
C     10.40319      7.29314      3.19606        -0.057796     -1.071914      0.706198
C     10.35913      6.23373      4.25547        -0.062896      0.326825     -0.186612
C      7.29314     10.40319      3.19606        -1.079771     -0.053765      0.229921
C      6.23373     10.35913      4.25547         0.382567      0.112842     -0.535704
C      7.29314      0.08601      7.29314        -0.631329      0.019908     -0.375034
C      6.23373      0.13007      6.23373         0.166879      0.097447      0.097822
C      3.19606      0.08601      3.19606         0.661877      0.008694      0.169712
C      4.25547      0.13007      4.25547        -0.195566     -0.079930     -0.329994
C      3.19606     10.40319      7.29314         0.510133     -0.029517     -0.949245
C      4.25547     10.35913      6.23373        -0.138977     -0.037890      0.157524
C      3.19606      7.29314     10.40319         0.688260     -0.375244      0.009290
C      4.25547      6.23373     10.35913        -0.119826      0.184917     -0.001167
C      7.29314      7.29314      0.08601        -0.451816     -0.286266     -0.011507
C      6.23373      6.23373      0.13007         0.155317      0.136015     -0.103861
C      3.19606      3.19606      0.08601         0.322764      0.532578     -0.015656
C      4.25547      4.25547      0.13007        -0.430540     -0.262141     -0.027797
C      7.29314      3.19606     10.40319        -0.290299      0.593821     -0.003127
C      6.23373      4.25547     10.35913         0.007525     -0.132065      0.020612
O     10.43466      3.58206      8.50569        -0.030496      0.039589      0.244144
O     10.54374     17.39634      8.50569         0.056006     -0.092995      0.536062
O     10.54374      3.58206     12.47271         0.032814      0.112202     -0.411529
O     10.43466     17.39634     12.47271         0.092050     -0.061492     -0.471015
O      8.50569     10.43466      3.58206         0.713254     -0.068637      0.025184
O      8.50569     10.54374     17.39634         0.684129      0.067905     -0.105065
O     12.47271     10.54374      3.58206        -0.617208      0.127680      0.211341
O     12.47271     10.43466     17.39634        -0.361216     -0.000043      0.030578
O      3.58206      8.50569     10.43466         0.021355      0.423543     -0.068812
O     17.39634      8.50569     10.54374        -0.056546      0.439521      0.059833
O      3.58206     12.47271     10.54374         0.118108     -0.618174     -0.001006
O     17.39634     12.47271     10.43466        -0.202459     -0.740547     -0.034047
O      3.58206     10.43466      8.50569         0.198168     -0.042229      0.784845
O     17.39634     10.54374      8.50569        -0.009095      0.064006      0.378800
O      3.58206     10.54374     12.47271         0.003550     -0.000058     -0.283356
O     17.39634     10.43466     12.47271         0.013169     -0.009817     -0.261762
O     10.43466      8.50569      3.58206        -0.109978      0.517677     -0.090384
O     10.54374      8.50569     17.39634         0.058343      0.554024     -0.071229
O     10.54374     12.47271      3.58206         0.095559     -0.588787      0.121627
O     10.43466     12.47271     17.39634        -0.043879     -0.818663     -0.320134
O      8.50569      3.58206     10.43466         0.400524      0.026934     -0.056371
O      8.50569     17.39634     10.54374         0.645310     -0.155050      0.037295
O     12.47271      3.58206     10.54374        -0.524148      0.117236      0.021506
O     12.47271     17.39634     10.43466        -0.660569     -0.124318      0.049525
O     11.90042     11.90042     19.56718        -0.274715     -0.293741      0.213866
O     19.56718     19.56718     19.56718         0.313816      0.312042      0.289316
O     19.56718     11.90042     11.90042         0.278416     -0.321223     -0.241550
O     11.90042     19.56718     11.90042        -0.314373      0.221227     -0.208511
O      9.45224      1.03696      9.45224        -0.092428      0.118244     -0.063834
O      1.03696      9.45224      9.45224         0.131383     -0.132346     -0.054147
O      1.03696      1.03696      1.03696         0.091664      0.070190      0.075752
O      9.45224      9.45224      1.03696        -0.072909     -0.138929      0.126458
Zr     10.48920      2.52580     10.48920         0.040723     -0.132786      0.167794
Zr     10.48920     18.45260     10.48920        -0.192574      0.265589     -0.340397
Zr     10.48920     10.48920      2.52580         0.132095      0.364714     -0.290683
Zr     10.48920     10.48920     18.45260        -0.085721     -0.249894      0.306788
Zr      2.52580     10.48920     10.48920        -0.274194      0.107908      0.272309
Zr     18.45260     10.48920     10.48920         0.182102     -0.142824     -0.045480
Pd      9.36165     14.41953      9.18931         0.015050     -0.002771      0.123617
Pd      8.62410     13.62322     13.14617         0.024570      0.083261     -0.022805
Pd     12.07919     14.38933      8.79962        -0.190295      0.057939     -0.050079
Pd     12.62788     12.84224     10.78070        -0.155801     -0.174353      0.129645
Pd     12.15606      7.18276     12.66618        -0.113783     -0.126591      0.015891
Pd     11.13562     15.00852     11.38899        -0.110102     -0.053768     -0.020359
Pd      9.89666     12.70172     10.96058         0.234251      0.003443      0.349579
Pd     13.50436     12.24452      8.00189         0.157524     -0.101561      0.063281
Pd     11.54763     11.59503      6.13574        -0.086930      0.150077     -0.201895
Pd      7.90994      8.26657      7.47579         0.040700     -0.019668      0.065374
Pd      8.70477     11.74423      6.85230         0.005140      0.076062     -0.102327
Pd     10.21545      9.42917      8.19850        -0.053842      0.089830     -0.090433
Pd      8.46626     14.45268      6.72270        -0.038556     -0.015796     -0.147470
Pd     12.33749      9.12421      6.73746         0.080526     -0.026227      0.097042
Pd      9.77737      9.67335      5.56252        -0.006222     -0.114366      0.035815
Pd      6.89156      9.47884     12.17276        -0.061089     -0.130957     -0.100591
Pd     12.24488      6.78575      8.03193         0.004702     -0.247431     -0.304473
Pd      5.92949     10.53900      9.70274        -0.146943     -0.074755      0.105193
Pd      7.51001      7.19224     13.33532         0.108116     -0.017428      0.074627
Ir     11.64669      9.73797     13.07939        -0.169391     -0.117481      0.137161
Ir     13.50396      9.12110     11.51252        -0.108910     -0.024315      0.041770
Ir      9.38109      8.82958     14.04765        -0.174327      0.009353     -0.301483
Ir     10.48357     10.86140     15.09223        -0.093115     -0.114559     -0.190125
Ir      7.28244     11.99797     11.41291         0.057691      0.044981     -0.225028
Ir     14.58621     10.98415     10.24225         0.024127      0.172448      0.113184
Ir     12.18113     10.55215      9.56379        -0.002429      0.231723      0.055510
Ir      8.87826     11.02736     12.99398         0.389240     -0.027731      0.008907
Ir     10.11961      9.95321     11.06274        -0.148739     -0.080799      0.086125
Ir     13.57789     11.42457     12.63660        -0.108238      0.088746     -0.037297
Ir     11.28163     12.25521     13.09622         0.009446      0.110957     -0.022847
Ir      8.47860     11.11708      9.33087         0.036948      0.109335      0.126324
Ir     11.59862      8.01015     10.18044        -0.139401      0.073536      0.075809
Ir      7.23236     13.04673      8.69033        -0.141488      0.360045     -0.111075
Ir      9.54339      6.94184      9.23082         0.018503      0.074610      0.184196
Ir      8.04280      8.77268     10.01280        -0.079306     -0.010581      0.119654
Ir     10.72156     12.14754      8.48140        -0.066928     -0.053292      0.109257
Ir      9.49518      7.63393     11.75251         0.153119      0.040187      0.040416
Ir     13.76372      8.75760      8.94871         0.231517     -0.064513     -0.029762
