152
# total energy = -1005.47119123 eVH     10.35389      5.87395      7.64558         0.162125      0.099741      0.580970
H     10.62451     15.10445      7.64558        -0.126690     -0.144507      0.511468
H     10.62451      5.87395     13.33282         0.566380      0.078885     -0.856726
H     10.35389     15.10445     13.33282         0.021330     -0.155611     -0.395728
H      7.64558     10.35389      5.87395         0.354593      0.039047      0.164588
H      7.64558     10.62451     15.10445         0.908667      0.551915      0.018290
H     13.33282     10.62451      5.87395        -0.435037      0.356627      0.109113
H     13.33282     10.35389     15.10445        -0.842024     -0.071574     -0.000644
H      5.87395      7.64558     10.35389         0.326743      1.233730      0.034397
H     15.10445      7.64558     10.62451        -0.108637      0.490961      0.300232
H      5.87395     13.33282     10.62451         0.181376     -0.606262      0.055796
H     15.10445     13.33282     10.35389        -0.083615     -0.951704     -0.200878
H      5.87395     10.35389      7.64558         0.209126      0.055282      0.440253
H     15.10445     10.62451      7.64558        -0.143004      0.523241      0.776135
H      5.87395     10.62451     13.33282         0.025325      0.454202     -1.073529
H     15.10445     10.35389     13.33282        -0.077544     -0.031808     -0.637448
H     10.35389      7.64558      5.87395         0.308289      1.190293      0.065079
H     10.62451      7.64558     15.10445         0.668476      0.689463     -0.218208
H     10.62451     13.33282      5.87395        -0.397761     -0.818878      0.273865
H     10.35389     13.33282     15.10445        -0.106690     -0.472952     -0.290951
H      7.64558      5.87395     10.35389         0.820373      0.058632     -0.196474
H      7.64558     15.10445     10.62451         0.799501     -0.179052      0.034244
H     13.33282      5.87395     10.62451        -0.706448      0.162615      0.506357
H     13.33282     15.10445     10.35389        -0.379104     -0.120462     -0.090978
H     12.45634     12.45634     19.01126         0.246393      0.272483     -0.232608
H     19.01126     19.01126     19.01126        -0.276195     -0.250282     -0.237594
H     19.01126     12.45634     12.45634        -0.278564      0.262373      0.219085
H     12.45634     19.01126     12.45634         0.236322     -0.262037      0.274239
C     10.35284      5.61067      6.59456        -0.318460     -0.771349     -0.139793
C     10.62556     15.36773      6.59456         0.056959      0.317394     -0.279601
C     10.62556      5.61067     14.38384        -0.145851     -0.508066      0.348022
C     10.35284     15.36773     14.38384         0.018447      0.186439      0.342938
C      6.59456     10.35284      5.61067        -0.395242      0.011018     -0.243643
C      6.59456     10.62556     15.36773        -0.696232      0.105321      0.661074
C     14.38384     10.62556      5.61067        -0.279774     -0.456233     -0.679834
C     14.38384     10.35284     15.36773         1.039819     -0.088234      0.176994
C      5.61067      6.59456     10.35284        -0.745760     -0.284286     -0.335213
C     15.36773      6.59456     10.62556         0.526166      0.025941     -0.374231
C      5.61067     14.38384     10.62556        -0.210808      0.635833     -0.017718
C     15.36773     14.38384     10.35284         0.267313      0.954252      0.025208
C      5.61067     10.35284      6.59456        -0.302094      0.010893     -0.785844
C     15.36773     10.62556      6.59456         0.498482     -0.255457      0.212113
C      5.61067     10.62556     14.38384        -0.712044      0.003697      0.619432
C     15.36773     10.35284     14.38384         0.424244     -0.032042      0.989952
C     10.35284      6.59456      5.61067        -0.123867     -0.780996     -0.568154
C     10.62556      6.59456     15.36773        -0.048667     -0.492884      0.575804
C     10.62556     14.38384      5.61067         0.192663      1.184684     -0.348953
C     10.35284     14.38384     15.36773        -0.003318      0.847956      0.387710
C      6.59456      5.61067     10.35284         0.152264     -1.075431      0.290333
C      6.59456     15.36773     10.62556        -0.975353      0.231322      0.079073
C     14.38384      5.61067     10.62556         0.284765     -0.567441     -0.361938
C     14.38384     15.36773     10.35284         0.145489      0.357027     -0.076620
C     10.40319      3.19606      7.29314         0.003422      0.851238     -0.446507
C     10.35913      4.25547      6.23373         0.062631     -0.545647      0.111297
C      0.08601      7.29314      7.29314        -0.040686     -0.853630     -0.233609
C      0.13007      6.23373      6.23373        -0.047738      0.226171      0.434149
C      0.08601      3.19606      3.19606         0.021261      1.406931      0.263097
C      0.13007      4.25547      4.25547         0.009060     -0.590912     -0.284771
C     10.40319      7.29314      3.19606         0.002123     -0.334205      0.265166
C     10.35913      6.23373      4.25547         0.033613      0.021758     -0.734232
C      7.29314     10.40319      3.19606        -0.264677      0.017496      0.528662
C      6.23373     10.35913      4.25547         0.139032      0.042216     -0.057713
C      7.29314      0.08601      7.29314        -0.863577     -0.076732     -0.307970
C      6.23373      0.13007      6.23373         0.823484     -0.180956      0.412645
C      3.19606      0.08601      3.19606         0.896281     -0.028588      0.564060
C      4.25547      0.13007      4.25547        -0.527784     -0.103354     -0.659763
C      3.19606     10.40319      7.29314         0.543330     -0.011275     -0.770513
C      4.25547     10.35913      6.23373        -0.258765      0.064104      0.216218
C      3.19606      7.29314     10.40319         0.304631     -1.329453      0.021727
C      4.25547      6.23373     10.35913        -1.072541      0.026154      0.118580
C      7.29314      7.29314      0.08601        -0.445808     -0.433426     -0.012811
C      6.23373      6.23373      0.13007         0.561466      0.232983      0.019374
C      3.19606      3.19606      0.08601         0.446732      0.343713     -0.033315
C      4.25547      4.25547      0.13007        -0.131788     -0.572148     -0.047002
C      7.29314      3.19606     10.40319        -0.400682      0.455760      0.055703
C      6.23373      4.25547     10.35913         0.267333     -0.749062      0.141257
O     10.43466      3.58206      8.50569        -0.015409      0.052830      0.446899
O     10.54374     17.39634      8.50569         0.065919     -0.071238      0.331155
O     10.54374      3.58206     12.47271         0.025464     -0.117882     -0.140465
O     10.43466     17.39634     12.47271        -0.027973     -0.166080     -0.520348
O      8.50569     10.43466      3.58206         0.285333     -0.020962      0.013682
O      8.50569     10.54374     17.39634         0.802255     -0.048278     -0.178414
O     12.47271     10.54374      3.58206        -0.795020      0.098409      0.089986
O     12.47271     10.43466     17.39634        -0.476201      0.033535     -0.075022
O      3.58206      8.50569     10.43466         0.151024      1.100499     -0.035649
O     17.39634      8.50569     10.54374        -0.158673      0.592645      0.067235
O      3.58206     12.47271     10.54374         0.104057     -0.438783      0.034562
O     17.39634     12.47271     10.43466        -0.144183     -0.563037     -0.031417
O      3.58206     10.43466      8.50569         0.061910     -0.090175      0.607456
O     17.39634     10.54374      8.50569        -0.027614      0.089768      0.416250
O      3.58206     10.54374     12.47271         0.021936      0.036214     -0.493392
O     17.39634     10.43466     12.47271        -0.227290     -0.047011     -0.643730
O     10.43466      8.50569      3.58206        -0.039045      0.453848      0.140442
O     10.54374      8.50569     17.39634        -0.066358      0.716893     -0.225025
O     10.54374     12.47271      3.58206         0.033581     -0.995491      0.116952
O     10.43466     12.47271     17.39634         0.059706     -0.799529     -0.214319
O      8.50569      3.58206     10.43466         0.586494      0.151567     -0.053837
O      8.50569     17.39634     10.54374         0.535156     -0.178933     -0.002200
O     12.47271      3.58206     10.54374        -0.602346      0.192239      0.003862
O     12.47271     17.39634     10.43466        -0.254345      0.077245     -0.043477
O     11.90042     11.90042     19.56718        -0.264977     -0.311862      0.228088
O     19.56718     19.56718     19.56718         0.326136      0.292651      0.243589
O     19.56718     11.90042     11.90042         0.318334     -0.261401     -0.235397
O     11.90042     19.56718     11.90042        -0.240035      0.300613     -0.332440
O      9.45224      1.03696      9.45224         0.002673      0.065283     -0.134244
O      1.03696      9.45224      9.45224         0.082961     -0.075048     -0.172049
O      1.03696      1.03696      1.03696         0.108863      0.164781      0.028839
O      9.45224      9.45224      1.03696        -0.091527     -0.112029      0.011458
Zr     10.48920      2.52580     10.48920        -0.090359     -0.211849     -0.023100
Zr     10.48920     18.45260     10.48920        -0.097358      0.185661      0.193345
Zr     10.48920     10.48920      2.52580        -0.092078     -0.441856     -0.201458
Zr     10.48920     10.48920     18.45260        -0.142524      0.045708      0.440033
Zr      2.52580     10.48920     10.48920        -0.335218      0.297491      0.308230
Zr     18.45260     10.48920     10.48920         0.157890      0.020427     -0.097476
Pd     13.60983      8.95855      9.10772         0.009176     -0.002426      0.016567
Pd      5.69741      9.70411      9.95976        -0.000320      0.030785      0.044821
Pd      6.86370     11.34162     11.70906        -0.019088      0.072799      0.018268
Pd     12.17109     13.13901      7.35583         0.026359     -0.033912     -0.029665
Pd     12.08599      7.89215      7.15302         0.035251      0.008126      0.036003
Pd      8.28980      7.05726      6.55500         0.014068     -0.002692     -0.025786
Pd     10.86015     11.30267      5.59257         0.005004     -0.018999     -0.027362
Pd     14.63575      8.53613      6.68571         0.007114     -0.005124     -0.013233
Pd      9.62181     11.81373      8.01561         0.047700     -0.023903     -0.019483
Pd      6.68767      6.78990     12.30464         0.017378     -0.008120     -0.000348
Pd      6.38846      7.54000      8.27862         0.014009      0.031716      0.011705
Pd      7.01254      8.88994     13.85913        -0.053181     -0.049408      0.041793
Pd     11.65666      6.55131      9.44188        -0.000400     -0.022401      0.039267
Pd      9.74803      9.29134      6.90902        -0.008963      0.025386     -0.045159
Pd      9.04054     13.97750      9.42615        -0.020396     -0.014121     -0.003291
Pd     10.04850      7.04918     11.49736        -0.016477      0.021592      0.052970
Pd     10.52995      8.95986      9.54634         0.008057      0.017903      0.009686
Pd      9.37122     11.25122     10.61442        -0.024508      0.034254     -0.027827
Pd      8.90555      6.96647      9.11191        -0.032445      0.060818     -0.002884
Pd      8.80442      6.96071     13.82580        -0.041276     -0.062267      0.053637
Pd      8.07253      8.88793     11.38772        -0.042953      0.024260      0.018595
Pd     11.93856     10.54406      7.84571         0.026268     -0.035284     -0.001704
Pd      7.14975     12.05487      9.16632        -0.013269     -0.001018     -0.023104
Pd      8.01900      9.57756      8.79582        -0.002205      0.027539      0.003672
Pd     14.19963      6.51074      8.44394        -0.037783     -0.012783      0.005241
Pd     12.55070      8.25079     11.45442         0.005144      0.013487      0.011443
Pd      8.83110     11.32931     13.42877         0.008691      0.019406     -0.008719
Pd     13.89791     11.93139      9.04195        -0.007183      0.005025     -0.007593
Pd     12.86187     10.57254     13.08302         0.012406     -0.008052      0.022678
Pd     14.70804     10.28928     11.13103         0.001737      0.033108      0.005451
Pd     12.04688     10.73889     10.59346        -0.008325     -0.042195     -0.013065
Pd     11.46087     13.16754      9.88491        -0.032786     -0.018544     -0.018629
Pd     13.56967     12.81432     11.67756         0.011147     -0.003149     -0.002742
Pd     11.03232     12.54479     12.44379         0.011811     -0.008297      0.007947
Pd     11.10686     11.37291     14.87083        -0.008815     -0.017699      0.026492
Pd     10.47770      9.47653     12.57229        -0.012311      0.045276     -0.017607
Pd      9.45308      9.31892     15.03060        -0.006766     -0.017469      0.002416
Pd      8.60823     13.50109     11.99092         0.003766      0.026657     -0.002241
