152
# total energy = -1005.98051525 eVH     10.35389      5.87395      7.64558         0.257268      0.037608      0.638984
H     10.62451     15.10445      7.64558        -0.109362     -0.142752      0.527653
H     10.62451      5.87395     13.33282         0.487109      0.120286     -0.585062
H     10.35389     15.10445     13.33282         0.071071     -0.184907     -0.545653
H      7.64558     10.35389      5.87395         0.370572      0.046596      0.172338
H      7.64558     10.62451     15.10445         0.690321      0.470899     -0.042633
H     13.33282     10.62451      5.87395        -0.532164      0.418309      0.075278
H     13.33282     10.35389     15.10445        -0.798997     -0.095136      0.003602
H      5.87395      7.64558     10.35389         0.250209      0.781943     -0.296604
H     15.10445      7.64558     10.62451        -0.094720      0.485176      0.285172
H      5.87395     13.33282     10.62451         0.157278     -0.698591     -0.161755
H     15.10445     13.33282     10.35389        -0.004113     -1.045029     -0.330644
H      5.87395     10.35389      7.64558         0.253315      0.157875      0.615450
H     15.10445     10.62451      7.64558        -0.111296      0.407806      0.767325
H      5.87395     10.62451     13.33282         0.141048      0.335453     -0.696801
H     15.10445     10.35389     13.33282        -0.040834     -0.075953     -0.701963
H     10.35389      7.64558      5.87395         0.368790      1.045443     -0.009427
H     10.62451      7.64558     15.10445         0.536756      0.536126     -0.118474
H     10.62451     13.33282      5.87395        -0.396823     -0.836796      0.188170
H     10.35389     13.33282     15.10445        -0.043010     -0.433375     -0.217381
H      7.64558      5.87395     10.35389         0.854585      0.088182     -0.290400
H      7.64558     15.10445     10.62451         0.828836     -0.200966      0.000980
H     13.33282      5.87395     10.62451        -0.795810      0.189649      0.591466
H     13.33282     15.10445     10.35389        -0.444611     -0.107281     -0.136579
H     12.45634     12.45634     19.01126         0.235564      0.270895     -0.239715
H     19.01126     19.01126     19.01126        -0.262075     -0.240780     -0.261592
H     19.01126     12.45634     12.45634        -0.266658      0.268354      0.219511
H     12.45634     19.01126     12.45634         0.232630     -0.256793      0.276461
C     10.35284      5.61067      6.59456        -0.431306     -0.689398      0.151343
C     10.62556     15.36773      6.59456         0.065858      0.363266     -0.308240
C     10.62556      5.61067     14.38384        -0.329586     -0.375065     -0.296092
C     10.35284     15.36773     14.38384        -0.006542      0.342020      0.534334
C      6.59456     10.35284      5.61067        -0.283709     -0.006149     -0.332068
C      6.59456     10.62556     15.36773        -0.251872     -0.216741      0.797996
C     14.38384     10.62556      5.61067        -0.243342     -0.396438     -0.525017
C     14.38384     10.35284     15.36773         0.971670     -0.063733      0.255387
C      5.61067      6.59456     10.35284        -0.535923     -0.006632      0.053548
C     15.36773      6.59456     10.62556         0.534348      0.016252     -0.250019
C      5.61067     14.38384     10.62556        -0.323880      0.977772      0.080051
C     15.36773     14.38384     10.35284         0.303579      1.046913      0.049226
C      5.61067     10.35284      6.59456        -0.190668     -0.214887     -0.609017
C     15.36773     10.62556      6.59456         0.446148     -0.277152      0.114572
C      5.61067     10.62556     14.38384        -0.700947     -0.343919     -0.080979
C     15.36773     10.35284     14.38384         0.382952     -0.064315      1.025500
C     10.35284      6.59456      5.61067        -0.218189     -0.275261     -0.656424
C     10.62556      6.59456     15.36773        -0.266528      0.131806      0.451887
C     10.62556     14.38384      5.61067         0.195584      1.062121     -0.347356
C     10.35284     14.38384     15.36773         0.016866      0.544727      0.443264
C      6.59456      5.61067     10.35284        -0.147495     -0.733811      0.251435
C      6.59456     15.36773     10.62556        -1.005307      0.286688      0.079758
C     14.38384      5.61067     10.62556         0.496703     -0.554745     -0.367097
C     14.38384     15.36773     10.35284         0.218294      0.461713     -0.100361
C     10.40319      3.19606      7.29314         0.013398      0.678919     -0.478645
C     10.35913      4.25547      6.23373         0.087579     -0.722052     -0.022228
C      0.08601      7.29314      7.29314        -0.044244     -0.407531     -0.313313
C      0.13007      6.23373      6.23373        -0.022821      0.086817      0.573349
C      0.08601      3.19606      3.19606        -0.012794      1.269227      0.283813
C      0.13007      4.25547      4.25547         0.050520     -0.778877     -0.156098
C     10.40319      7.29314      3.19606         0.011637     -0.325517      0.329945
C     10.35913      6.23373      4.25547         0.025755      0.005944     -0.842337
C      7.29314     10.40319      3.19606        -0.321182      0.022422      0.564419
C      6.23373     10.35913      4.25547         0.200639      0.064657     -0.089433
C      7.29314      0.08601      7.29314        -0.516904     -0.065206     -0.376946
C      6.23373      0.13007      6.23373         0.678710     -0.054091      0.478989
C      3.19606      0.08601      3.19606         0.721059     -0.034652      0.569138
C      4.25547      0.13007      4.25547        -0.581559     -0.086579     -0.545207
C      3.19606     10.40319      7.29314         0.480192     -0.013679     -0.768458
C      4.25547     10.35913      6.23373        -0.401222      0.053234      0.198293
C      3.19606      7.29314     10.40319         0.294937     -1.276254      0.045074
C      4.25547      6.23373     10.35913        -0.772596      0.109004      0.152081
C      7.29314      7.29314      0.08601        -0.407482     -0.374536     -0.027375
C      6.23373      6.23373      0.13007         0.467228      0.214521     -0.017540
C      3.19606      3.19606      0.08601         0.489910      0.375497     -0.041060
C      4.25547      4.25547      0.13007        -0.157501     -0.648090     -0.035226
C      7.29314      3.19606     10.40319        -0.325392      0.437056      0.076648
C      6.23373      4.25547     10.35913         0.284025     -0.683581      0.145087
O     10.43466      3.58206      8.50569        -0.018065      0.105171      0.501571
O     10.54374     17.39634      8.50569         0.036718     -0.175431      0.485992
O     10.54374      3.58206     12.47271         0.054479     -0.088439     -0.184851
O     10.43466     17.39634     12.47271        -0.038814     -0.183382     -0.546211
O      8.50569     10.43466      3.58206         0.306729     -0.004097      0.026118
O      8.50569     10.54374     17.39634         0.627981      0.034557     -0.144201
O     12.47271     10.54374      3.58206        -0.706657      0.084950      0.094663
O     12.47271     10.43466     17.39634        -0.437348      0.024712     -0.109313
O      3.58206      8.50569     10.43466         0.178291      1.040947     -0.040805
O     17.39634      8.50569     10.54374        -0.160287      0.540257      0.076176
O      3.58206     12.47271     10.54374         0.085616     -0.369252      0.049050
O     17.39634     12.47271     10.43466        -0.156623     -0.546722     -0.022882
O      3.58206     10.43466      8.50569         0.078196     -0.067025      0.590839
O     17.39634     10.54374      8.50569        -0.110699      0.066195      0.525129
O      3.58206     10.54374     12.47271         0.042658      0.047834     -0.521462
O     17.39634     10.43466     12.47271        -0.223004     -0.038457     -0.605198
O     10.43466      8.50569      3.58206        -0.039967      0.455029      0.136270
O     10.54374      8.50569     17.39634         0.050780      0.531045     -0.159648
O     10.54374     12.47271      3.58206         0.003445     -1.019491      0.203711
O     10.43466     12.47271     17.39634         0.041820     -0.725464     -0.175355
O      8.50569      3.58206     10.43466         0.509215      0.146060     -0.055591
O      8.50569     17.39634     10.54374         0.487391     -0.196476      0.014749
O     12.47271      3.58206     10.54374        -0.632314      0.229894      0.010587
O     12.47271     17.39634     10.43466        -0.221973      0.067417     -0.055436
O     11.90042     11.90042     19.56718        -0.239187     -0.290100      0.247106
O     19.56718     19.56718     19.56718         0.311105      0.295283      0.301198
O     19.56718     11.90042     11.90042         0.291630     -0.264590     -0.233281
O     11.90042     19.56718     11.90042        -0.241589      0.290806     -0.330434
O      9.45224      1.03696      9.45224        -0.018901      0.088067     -0.073244
O      1.03696      9.45224      9.45224         0.091895     -0.092253     -0.137222
O      1.03696      1.03696      1.03696         0.090627      0.189174      0.050189
O      9.45224      9.45224      1.03696        -0.108615     -0.103755      0.034134
Zr     10.48920      2.52580     10.48920        -0.127770     -0.287388     -0.037646
Zr     10.48920     18.45260     10.48920        -0.075315      0.215125      0.081288
Zr     10.48920     10.48920      2.52580         0.029931     -0.402993     -0.256907
Zr     10.48920     10.48920     18.45260        -0.279197     -0.091793      0.322183
Zr      2.52580     10.48920     10.48920        -0.380045      0.239992      0.290389
Zr     18.45260     10.48920     10.48920         0.236551     -0.004328     -0.225265
Pd     13.60738      8.97252      9.22612         0.004153      0.008462     -0.007881
Pd      5.62929      9.87508     10.14190        -0.001252     -0.004059     -0.002414
Pd      6.77858     11.85708     11.70929        -0.004163     -0.002720      0.001610
Pd     12.06018     13.00811      7.37233         0.000485     -0.004528     -0.004101
Pd     11.88097      7.73821      7.46416        -0.002556      0.001979     -0.000077
Pd      8.31309      6.85149      6.57804         0.001939     -0.004252     -0.014445
Pd     10.63211     11.17289      5.64666        -0.016528     -0.002300      0.003736
Pd     14.39776      8.55082      6.74516         0.000076     -0.001054     -0.005482
Pd      9.67561     11.72731      8.12455        -0.005289      0.001521      0.007268
Pd      6.75826      6.79660     12.32388        -0.008578     -0.001947      0.003990
Pd      6.54356      8.08486      8.03870         0.016560      0.050765     -0.043223
Pd      6.53333      8.49918     14.35978        -0.004524     -0.002737      0.008051
Pd     11.49743      6.52506      9.94449        -0.003260     -0.002626      0.003193
Pd      9.50709      9.20062      7.14908        -0.012103     -0.000613      0.007365
Pd      8.98018     13.98448      9.32803        -0.000484      0.001965      0.008057
Pd      9.46818      7.37190     11.72435        -0.010020     -0.000573     -0.007042
Pd     10.61883      8.98259      9.68563         0.002842     -0.006321      0.000842
Pd      9.33935     11.53827     10.71003         0.000295      0.007664      0.008731
Pd      8.89766      7.05467      9.14528        -0.011045      0.005485     -0.011087
Pd      8.55320      6.57846     14.24624         0.000497      0.000598     -0.004020
Pd      7.64898      9.33278     11.99087        -0.008063     -0.003216      0.012340
Pd     11.96933     10.37967      7.72709        -0.010619     -0.000555     -0.002603
Pd      7.13140     12.01268      9.06352        -0.001916      0.001277      0.003292
Pd      8.12868      9.60853      9.39514         0.006201      0.006674      0.025116
Pd     14.02089      6.49133      8.51860        -0.003231      0.004996      0.002423
Pd     12.62068      8.39598     11.58351         0.005761      0.006212     -0.005628
Pd      8.77043     11.57638     13.40531        -0.002848     -0.000696      0.002528
Pd     13.88932     11.93748      8.96399        -0.003591     -0.007645      0.002076
Pd     12.95529     10.70040     13.06400        -0.005777      0.003701      0.005783
Pd     14.78976     10.44832     11.10289        -0.006175     -0.003362      0.007103
Pd     12.07615     10.89994     10.52878        -0.007008      0.000408      0.005610
Pd     11.44049     13.35208      9.93728         0.001110     -0.002098     -0.003812
Pd     13.60187     12.92510     11.62811        -0.001818     -0.001287     -0.000163
Pd     11.12314     12.61147     12.53908        -0.003416      0.004930      0.001631
Pd     10.95578     11.05881     14.81436        -0.004877      0.002569      0.002168
Pd     10.51662      9.73922     12.38127        -0.003604     -0.006267      0.002752
Pd      9.08628      9.14209     14.41821        -0.002000      0.001070      0.005006
Pd      8.82594     13.85244     12.02292        -0.007333      0.003577      0.008608
