21
# total energy = -132.41583338 eVH      5.95168      5.93953      7.50000         0.010803      0.008929      0.000000
H      2.20253      8.14405      7.50000        -0.013272      0.005355      0.000000
H      2.16794      3.79493      7.50000         0.002131     -0.013761      0.000000
H      4.37048      0.01997      7.50000        -0.010803     -0.008929     -0.000000
H      8.11962     -2.18455      7.50000         0.013272     -0.005355     -0.000000
H      8.15422      2.16457      7.50000        -0.002131      0.013761     -0.000000
C      8.26433     -0.01019      7.50000         0.002497     -0.009518      0.000000
C      6.19885      1.20265      7.50000         0.004936      0.006554     -0.000000
C      6.18116     -1.19252      7.50000        -0.006026      0.000489      0.000000
C      2.05783      5.96969      7.50000        -0.002497      0.009518     -0.000000
C      4.12330      4.75685      7.50000        -0.004936     -0.006554      0.000000
C      4.14100      7.15202      7.50000         0.006026     -0.000489      0.000000
C      7.58204     -1.23489      7.50000         0.034925     -0.022520     -0.000000
C      7.60062      1.22414      7.50000         0.001155      0.043564      0.000000
C      5.46171      0.01066      7.50000        -0.038389     -0.017208      0.000000
C      2.74012      7.19439      7.50000        -0.034925      0.022520      0.000000
C      2.72154      4.73536      7.50000        -0.001155     -0.043564     -0.000000
C      4.86044      5.94884      7.50000         0.038389      0.017208      0.000000
Pd      5.16108     -2.97975      7.50000         0.000000     -0.000000      0.000000
Pd     -0.00000      5.95950      7.50000         0.000000     -0.000000      0.000000
Pd      5.16108      2.97975      7.50000         0.000000     -0.000000      0.000000
