152
# total energy = -1022.47291049 eVH     10.35389      5.87395      7.64558         0.426647     -0.050311      1.055987
H     10.62451     15.10445      7.64558         0.033460     -0.071281      0.621314
H     10.62451      5.87395     13.33282         0.133444      0.109618     -0.631350
H     10.35389     15.10445     13.33282        -0.258616     -0.067314     -0.555552
H      7.64558     10.35389      5.87395         0.386677     -0.056586      0.188671
H      7.64558     10.62451     15.10445         0.625230     -0.131478     -0.106583
H     13.33282     10.62451      5.87395        -1.028145     -0.479971     -0.028564
H     13.33282     10.35389     15.10445        -0.478189     -0.063396     -0.049513
H      5.87395      7.64558     10.35389         0.035752      1.254278     -0.087902
H     15.10445      7.64558     10.62451        -0.167505      0.395264     -0.076305
H      5.87395     13.33282     10.62451         0.145390     -0.386191     -0.066290
H     15.10445     13.33282     10.35389        -0.078942     -1.004792     -0.324009
H      5.87395     10.35389      7.64558         0.118874     -0.015609      0.404745
H     15.10445     10.62451      7.64558         0.097309     -0.086324      0.793859
H      5.87395     10.62451     13.33282         0.264697     -0.057602     -0.422489
H     15.10445     10.35389     13.33282        -0.182496      0.055215     -0.628222
H     10.35389      7.64558      5.87395         0.190153      0.931368      0.037271
H     10.62451      7.64558     15.10445        -0.001540      0.720407     -0.105091
H     10.62451     13.33282      5.87395         0.339571     -0.502187      0.196774
H     10.35389     13.33282     15.10445        -0.174195     -0.935161     -0.120663
H      7.64558      5.87395     10.35389         0.476942      0.060340     -0.155595
H      7.64558     15.10445     10.62451         0.913517     -0.196088      0.221642
H     13.33282      5.87395     10.62451        -0.426402      0.193914     -0.067595
H     13.33282     15.10445     10.35389        -1.002842     -0.049759      0.265322
H     12.45634     12.45634     19.01126         0.272749      0.258718     -0.218959
H     19.01126     19.01126     19.01126        -0.249989     -0.235617     -0.261454
H     19.01126     12.45634     12.45634        -0.243798      0.274056      0.234664
H     12.45634     19.01126     12.45634         0.206275     -0.284821      0.257653
C     10.35284      5.61067      6.59456        -0.052801     -0.491653     -0.768789
C     10.62556     15.36773      6.59456         0.026134      0.333843     -0.888512
C     10.62556      5.61067     14.38384        -0.009706     -0.285707      0.744119
C     10.35284     15.36773     14.38384         0.224104      0.700804      0.072570
C      6.59456     10.35284      5.61067        -0.596265     -0.033671     -0.255950
C      6.59456     10.62556     15.36773        -0.878945      0.127612      0.413150
C     14.38384     10.62556      5.61067         1.064473      0.287541     -0.300158
C     14.38384     10.35284     15.36773         0.756068     -0.112930      0.422210
C      5.61067      6.59456     10.35284        -0.380037     -0.930354      0.208890
C     15.36773      6.59456     10.62556         0.197503     -0.477883      0.040376
C      5.61067     14.38384     10.62556        -0.244567      0.382538     -0.007990
C     15.36773     14.38384     10.35284         0.315245      0.359026      0.257893
C      5.61067     10.35284      6.59456        -0.337578      0.013649     -0.813675
C     15.36773     10.62556      6.59456         0.536267     -0.171887     -1.195339
C      5.61067     10.62556     14.38384        -0.507821      0.009973      1.091125
C     15.36773     10.35284     14.38384         0.545799     -0.198602      1.346138
C     10.35284      6.59456      5.61067        -0.002149     -1.148732     -0.721404
C     10.62556      6.59456     15.36773         0.058464     -0.913778      0.382999
C     10.62556     14.38384      5.61067        -0.044489      1.380102     -0.711630
C     10.35284     14.38384     15.36773         0.052790      0.658067      0.570091
C      6.59456      5.61067     10.35284        -0.061876     -0.898495      0.134971
C      6.59456     15.36773     10.62556        -1.714548      0.487168      0.062959
C     14.38384      5.61067     10.62556         0.554655     -0.225415      0.006682
C     14.38384     15.36773     10.35284         0.496793      0.505273     -0.220794
C     10.40319      3.19606      7.29314         0.017669      0.978791     -0.229499
C     10.35913      4.25547      6.23373        -0.030946     -0.287830      0.764596
C      0.08601      7.29314      7.29314        -0.011040     -0.223982     -0.464046
C      0.13007      6.23373      6.23373        -0.015450      0.150640      0.170078
C      0.08601      3.19606      3.19606        -0.023646      0.711251      0.148157
C      0.13007      4.25547      4.25547        -0.106163     -0.194136     -0.154561
C     10.40319      7.29314      3.19606        -0.003577     -0.647478      0.481571
C     10.35913      6.23373      4.25547         0.000669      0.570839     -0.311555
C      7.29314     10.40319      3.19606        -0.404871      0.017929      0.919900
C      6.23373     10.35913      4.25547         0.241714     -0.010418     -0.186336
C      7.29314      0.08601      7.29314        -0.305699     -0.054245     -0.241903
C      6.23373      0.13007      6.23373         0.300638     -0.094359      0.242057
C      3.19606      0.08601      3.19606         0.326338     -0.058816      1.361402
C      4.25547      0.13007      4.25547        -0.204314     -0.013949     -0.438944
C      3.19606     10.40319      7.29314         0.751489      0.018126     -0.256644
C      4.25547     10.35913      6.23373        -0.116196      0.039834      0.122685
C      3.19606      7.29314     10.40319         0.522191     -1.232552      0.041080
C      4.25547      6.23373     10.35913        -0.760145      0.704330      0.026082
C      7.29314      7.29314      0.08601        -0.649103     -0.197189     -0.023012
C      6.23373      6.23373      0.13007         0.175292      0.255082     -0.011611
C      3.19606      3.19606      0.08601         0.260466      0.265803     -0.018439
C      4.25547      4.25547      0.13007        -0.054940     -0.034675      0.011728
C      7.29314      3.19606     10.40319        -0.338505      0.700432      0.030508
C      6.23373      4.25547     10.35913         0.699047     -0.222522      0.029122
O     10.43466      3.58206      8.50569        -0.054882      0.024363      0.280684
O     10.54374     17.39634      8.50569        -0.021056     -0.195365      0.617666
O     10.54374      3.58206     12.47271         0.068011      0.045574     -0.288569
O     10.43466     17.39634     12.47271        -0.023861     -0.128108     -0.554055
O      8.50569     10.43466      3.58206         0.386899     -0.008335     -0.016000
O      8.50569     10.54374     17.39634         0.463882      0.059168     -0.144142
O     12.47271     10.54374      3.58206        -0.209567      0.069005     -0.120455
O     12.47271     10.43466     17.39634        -0.850250      0.026710     -0.208748
O      3.58206      8.50569     10.43466         0.034026      0.882345      0.041167
O     17.39634      8.50569     10.54374        -0.027753      0.357687      0.080477
O      3.58206     12.47271     10.54374         0.061221     -0.432995      0.059221
O     17.39634     12.47271     10.43466        -0.155366     -0.712588      0.010660
O      3.58206     10.43466      8.50569        -0.054349     -0.061325      0.225478
O     17.39634     10.54374      8.50569        -0.135877      0.043953      0.440163
O      3.58206     10.54374     12.47271        -0.065440     -0.060344     -0.870977
O     17.39634     10.43466     12.47271        -0.196331      0.046552     -0.777227
O     10.43466      8.50569      3.58206         0.024979      0.670769      0.201204
O     10.54374      8.50569     17.39634         0.055656      0.394929     -0.068937
O     10.54374     12.47271      3.58206        -0.049562     -0.740109      0.249621
O     10.43466     12.47271     17.39634         0.063146     -0.846665     -0.279550
O      8.50569      3.58206     10.43466         0.493608      0.093233     -0.041193
O      8.50569     17.39634     10.54374         0.659642     -0.231995     -0.057357
O     12.47271      3.58206     10.54374        -0.514534      0.157454      0.040379
O     12.47271     17.39634     10.43466        -0.469233     -0.029960     -0.045409
O     11.90042     11.90042     19.56718        -0.309041     -0.310728      0.257990
O     19.56718     19.56718     19.56718         0.292701      0.275327      0.321035
O     19.56718     11.90042     11.90042         0.280308     -0.330449     -0.231054
O     11.90042     19.56718     11.90042        -0.220280      0.294585     -0.242527
O      9.45224      1.03696      9.45224        -0.070395      0.061583     -0.066619
O      1.03696      9.45224      9.45224         0.070111     -0.142958     -0.050671
O      1.03696      1.03696      1.03696         0.045163      0.029902      0.190631
O      9.45224      9.45224      1.03696        -0.035117     -0.085755      0.136240
Zr     10.48920      2.52580     10.48920         0.000510     -0.069805     -0.026695
Zr     10.48920     18.45260     10.48920         0.029901      0.289124     -0.064363
Zr     10.48920     10.48920      2.52580        -0.062435     -0.033248     -0.365996
Zr     10.48920     10.48920     18.45260        -0.154440     -0.203168      0.299575
Zr      2.52580     10.48920     10.48920        -0.324246      0.348662     -0.486839
Zr     18.45260     10.48920     10.48920         0.213692      0.040710     -0.311340
Pd      9.03480     10.27349     13.48242         0.012665      0.008896     -0.038705
Pd     10.63579      9.72627     11.25848         0.015757     -0.006468     -0.069887
Pd     13.76826      8.53156     12.81167        -0.000650      0.007708     -0.022051
Pd     11.01736     11.14033     15.10713        -0.003250     -0.015845     -0.012546
Pd     12.81472     11.14830     13.04582         0.004213      0.021640      0.008433
Pd     15.01058     10.79719     11.38425        -0.026151      0.042740     -0.013269
Pd      6.67273      7.40298     12.31317         0.006207      0.003120      0.003414
Pd      9.30768      7.36241     10.24933        -0.031569     -0.058872     -0.025046
Pd      9.23949      7.64158     12.91747         0.012192      0.000217     -0.014900
Pd     11.72124      7.26778     11.63436        -0.000928     -0.007324     -0.030972
Pd     11.52760      7.79889      8.95573        -0.088906      0.080550     -0.013964
Pd      7.21020     11.84162     12.07228         0.012637     -0.015822     -0.032190
Pd      8.93531     14.65271      9.33539        -0.028099      0.006658      0.001207
Pd      8.44964     12.74038     14.35184        -0.014614     -0.019272     -0.000492
Pd     13.19983     13.94112      8.70297         0.053657      0.013608     -0.025952
Pd     10.76851     13.06437      8.44206         0.040562      0.063023     -0.001184
Pd     14.05127     11.41372      9.02280         0.000402      0.007138     -0.048352
Pd      8.65432     14.09378     12.06786        -0.018644      0.000524      0.008253
Pd     12.23106     13.74244     13.97213         0.002778      0.012187      0.012078
Pd     11.17062     14.35962     11.03327        -0.017328      0.011908      0.013840
Pd     14.04927     13.41868     12.12499         0.012461      0.041167      0.020947
Pd     12.23570     12.05069     10.67676         0.034632      0.039481      0.019932
Pd     12.47516     11.93395      6.87901         0.015195      0.087178     -0.057275
Pd     13.58271      9.00349      7.87009        -0.004179     -0.039133      0.015190
Pd      6.95831      8.39290      8.97191        -0.045298      0.030693     -0.026463
Pd      5.51048      9.86877     11.35539         0.019082     -0.000542     -0.012855
Pd      8.88788      9.94692      8.03708         0.066259     -0.026119      0.091402
Pd      9.07246      7.41542      7.58893        -0.079292     -0.044592     -0.022172
Pd      9.39862     11.98661     10.44996         0.030306      0.014354     -0.006770
Pd     11.31281     10.44606      8.81203         0.069315      0.081931     -0.047419
Pd     11.08323      9.36874      6.46759         0.008216      0.001067      0.001628
Pd      9.68663     11.74374      6.24299         0.008758     -0.024013      0.020207
Ir     11.37124      9.06719     13.58771         0.003914      0.009480     -0.043112
Ir     13.06589      9.36759     10.45874         0.002548      0.001629     -0.008504
Ir     10.51708     12.33381     12.70287         0.014707      0.014406      0.000568
Ir      7.02792     10.96545      9.60419         0.022636      0.005604     -0.010228
Ir      8.18263     12.47432      8.20737         0.027532     -0.029463      0.012125
Ir      8.09063      9.36329     11.20749        -0.019620      0.016737     -0.032499
