152
# total energy = -1060.09397075 eVH     10.35389      5.87395      7.64558        -0.278071      0.042088      1.126685
H     10.62451     15.10445      7.64558         0.088680     -0.087969      0.923093
H     10.62451      5.87395     13.33282        -0.260519      0.078643     -0.788353
H     10.35389     15.10445     13.33282         0.101280     -0.301836     -0.869688
H      7.64558     10.35389      5.87395         0.932408     -0.140645      0.188454
H      7.64558     10.62451     15.10445         0.325769     -0.033903     -0.072233
H     13.33282     10.62451      5.87395        -0.860200      0.196493      0.205107
H     13.33282     10.35389     15.10445        -0.279081     -0.014365     -0.067299
H      5.87395      7.64558     10.35389         0.087942      0.417992     -0.007850
H     15.10445      7.64558     10.62451        -0.007412      0.493797     -0.029017
H      5.87395     13.33282     10.62451        -0.015382     -0.962721      0.080020
H     15.10445     13.33282     10.35389        -0.089108     -0.322112      0.004386
H      5.87395     10.35389      7.64558         0.284740      0.110934      0.404698
H     15.10445     10.62451      7.64558        -0.123698     -0.170425      0.667839
H      5.87395     10.62451     13.33282        -0.084832      0.464540     -0.621958
H     15.10445     10.35389     13.33282         0.241703     -0.614391     -0.837714
H     10.35389      7.64558      5.87395        -0.039367      0.484945      0.335200
H     10.62451      7.64558     15.10445         0.262319      0.774198     -0.030076
H     10.62451     13.33282      5.87395         0.126570     -0.576433      0.210129
H     10.35389     13.33282     15.10445         0.040120     -0.288870     -0.144660
H      7.64558      5.87395     10.35389         0.348205      0.101276      0.032939
H      7.64558     15.10445     10.62451         0.381398     -0.119131      0.168464
H     13.33282      5.87395     10.62451        -0.315813      0.131005     -0.029892
H     13.33282     15.10445     10.35389        -0.653244     -0.130408      0.149667
H     12.45634     12.45634     19.01126         0.256219      0.271396     -0.228217
H     19.01126     19.01126     19.01126        -0.246814     -0.267925     -0.245239
H     19.01126     12.45634     12.45634        -0.250542      0.269822      0.235542
H     12.45634     19.01126     12.45634         0.290541     -0.235576      0.234860
C     10.35284      5.61067      6.59456         0.399704     -0.414610     -1.426665
C     10.62556     15.36773      6.59456        -0.157435      0.592049     -0.650521
C     10.62556      5.61067     14.38384         0.382021     -0.332166      0.832465
C     10.35284     15.36773     14.38384        -0.223472      0.230012      1.080430
C      6.59456     10.35284      5.61067        -1.377036      0.022178     -0.229665
C      6.59456     10.62556     15.36773        -0.641748      0.064017      0.364156
C     14.38384     10.62556      5.61067         1.311742     -0.169293     -0.634445
C     14.38384     10.35284     15.36773         0.355754     -0.126340      0.359218
C      5.61067      6.59456     10.35284        -0.285348     -0.652617     -0.022013
C     15.36773      6.59456     10.62556         0.419943     -0.954969      0.031775
C      5.61067     14.38384     10.62556        -0.138996      1.167681     -0.181907
C     15.36773     14.38384     10.35284         0.467366      0.657106     -0.027280
C      5.61067     10.35284      6.59456        -0.370756     -0.099596     -0.726548
C     15.36773     10.62556      6.59456         0.403646      0.116992     -0.723668
C      5.61067     10.62556     14.38384        -0.380462     -0.170677      1.233911
C     15.36773     10.35284     14.38384         0.259833      0.191984      1.451377
C     10.35284      6.59456      5.61067        -0.055306     -0.721811     -0.591704
C     10.62556      6.59456     15.36773        -0.110768     -0.897109      0.348763
C     10.62556     14.38384      5.61067        -0.476735      0.407787     -0.712349
C     10.35284     14.38384     15.36773        -0.157643      0.608564      0.422582
C      6.59456      5.61067     10.35284        -0.515050     -0.333190      0.023752
C      6.59456     15.36773     10.62556        -0.369293      0.445250      0.059556
C     14.38384      5.61067     10.62556         0.448240     -0.370255      0.001169
C     14.38384     15.36773     10.35284         1.118661      0.493284     -0.074087
C     10.40319      3.19606      7.29314        -0.001721      0.697390     -0.340733
C     10.35913      4.25547      6.23373         0.012102     -0.422422      0.290776
C      0.08601      7.29314      7.29314        -0.013915     -0.372338     -0.505470
C      0.13007      6.23373      6.23373        -0.067458      0.853574      0.066820
C      0.08601      3.19606      3.19606        -0.003012      0.684032      0.266161
C      0.13007      4.25547      4.25547         0.034367     -0.270972     -0.545722
C     10.40319      7.29314      3.19606        -0.066458     -1.150374      0.587691
C     10.35913      6.23373      4.25547        -0.039470      0.364103     -0.200189
C      7.29314     10.40319      3.19606        -1.083724     -0.056533      0.196448
C      6.23373     10.35913      4.25547         0.367319      0.086941     -0.543145
C      7.29314      0.08601      7.29314        -0.441222      0.032558     -0.511735
C      6.23373      0.13007      6.23373         0.183245      0.126320      0.126577
C      3.19606      0.08601      3.19606         0.694855      0.024160      0.165611
C      4.25547      0.13007      4.25547        -0.174133     -0.052329     -0.355978
C      3.19606     10.40319      7.29314         0.393420     -0.026530     -0.897120
C      4.25547     10.35913      6.23373        -0.152240     -0.075987      0.101127
C      3.19606      7.29314     10.40319         0.607309     -0.398256      0.002839
C      4.25547      6.23373     10.35913        -0.112430      0.182791      0.000952
C      7.29314      7.29314      0.08601        -0.412320     -0.313301     -0.014718
C      6.23373      6.23373      0.13007         0.178273      0.187768     -0.067374
C      3.19606      3.19606      0.08601         0.289086      0.479972     -0.023927
C      4.25547      4.25547      0.13007        -0.406301     -0.231943     -0.034049
C      7.29314      3.19606     10.40319        -0.278012      0.593936     -0.010540
C      6.23373      4.25547     10.35913         0.005190     -0.111218      0.020465
O     10.43466      3.58206      8.50569        -0.028061      0.089643      0.317426
O     10.54374     17.39634      8.50569         0.061963     -0.127808      0.590911
O     10.54374      3.58206     12.47271         0.028005      0.105955     -0.393176
O     10.43466     17.39634     12.47271         0.090529     -0.047776     -0.392187
O      8.50569     10.43466      3.58206         0.709329     -0.062350      0.011670
O      8.50569     10.54374     17.39634         0.491715      0.058747     -0.081540
O     12.47271     10.54374      3.58206        -0.648916      0.117142      0.205337
O     12.47271     10.43466     17.39634        -0.285290     -0.004184      0.024139
O      3.58206      8.50569     10.43466         0.039547      0.459816     -0.068920
O     17.39634      8.50569     10.54374        -0.059322      0.451242      0.056962
O      3.58206     12.47271     10.54374         0.114606     -0.582738      0.001821
O     17.39634     12.47271     10.43466        -0.174207     -0.743792     -0.055040
O      3.58206     10.43466      8.50569         0.209721     -0.061237      0.785522
O     17.39634     10.54374      8.50569        -0.093811      0.074951      0.544350
O      3.58206     10.54374     12.47271        -0.001515     -0.002493     -0.267118
O     17.39634     10.43466     12.47271         0.036711     -0.012146     -0.229171
O     10.43466      8.50569      3.58206        -0.104694      0.567547     -0.114011
O     10.54374      8.50569     17.39634         0.068434      0.506756     -0.086214
O     10.54374     12.47271      3.58206         0.104699     -0.626360      0.133207
O     10.43466     12.47271     17.39634        -0.059127     -0.663206     -0.260120
O      8.50569      3.58206     10.43466         0.393972      0.025751     -0.037276
O      8.50569     17.39634     10.54374         0.630587     -0.155151      0.047463
O     12.47271      3.58206     10.54374        -0.507832      0.126620      0.035087
O     12.47271     17.39634     10.43466        -0.621759     -0.131409      0.040762
O     11.90042     11.90042     19.56718        -0.273721     -0.306593      0.232618
O     19.56718     19.56718     19.56718         0.304055      0.318232      0.299562
O     19.56718     11.90042     11.90042         0.284578     -0.324436     -0.232309
O     11.90042     19.56718     11.90042        -0.315993      0.229227     -0.202700
O      9.45224      1.03696      9.45224        -0.085145      0.088136     -0.066629
O      1.03696      9.45224      9.45224         0.104936     -0.118514     -0.047033
O      1.03696      1.03696      1.03696         0.083825      0.056729      0.097196
O      9.45224      9.45224      1.03696        -0.061191     -0.131730      0.131551
Zr     10.48920      2.52580     10.48920         0.032332     -0.091951      0.083472
Zr     10.48920     18.45260     10.48920        -0.172103      0.259428     -0.346713
Zr     10.48920     10.48920      2.52580         0.119852      0.354234     -0.346513
Zr     10.48920     10.48920     18.45260        -0.083251     -0.209501      0.190764
Zr      2.52580     10.48920     10.48920        -0.255375      0.127507      0.231791
Zr     18.45260     10.48920     10.48920         0.224090     -0.117863     -0.006775
Pd      9.39651     14.27346      9.34715        -0.003642      0.027255     -0.044752
Pd      8.61723     13.69687     12.99235        -0.015846     -0.032306      0.027888
Pd     12.03907     14.41312      8.74158         0.013195     -0.021948      0.008546
Pd     12.76082     12.81954     10.63833        -0.044328      0.032470      0.047859
Pd     12.14640      7.11467     12.61725        -0.001834      0.010558     -0.004559
Pd     11.20437     14.84479     11.49526        -0.018718      0.031052     -0.031199
Pd     10.06918     12.50807     11.10508        -0.053041      0.064913     -0.042182
Pd     13.48396     12.13723      7.98331         0.015988      0.012258      0.000824
Pd     11.48250     11.55878      6.11054         0.006161      0.008421      0.002087
Pd      7.86028      8.54470      7.54181         0.016415     -0.047476     -0.007343
Pd      8.73482     11.73261      6.88099        -0.007833      0.018280     -0.002709
Pd     10.30759      9.46480      8.14466        -0.010476     -0.010248      0.005002
Pd      8.50612     14.43842      6.83371        -0.013452      0.012066     -0.027449
Pd     12.36683      9.03645      6.58866        -0.001375      0.012094      0.008440
Pd      9.74450      9.61120      5.55400        -0.000612      0.005647      0.000176
Pd      6.86802      9.46013     12.18768        -0.004959     -0.002990     -0.013001
Pd     12.20959      6.69479      7.87861         0.002631      0.006721      0.012026
Pd      5.94726     10.45846      9.72718        -0.007245     -0.007232     -0.000919
Pd      7.57623      7.14339     13.27577        -0.000788      0.027507      0.049758
Ir     11.78846      9.70008     13.06084        -0.020576     -0.031204     -0.014928
Ir     13.57552      8.99882     11.44880        -0.042803      0.029152     -0.000249
Ir      9.42105      8.83220     13.90462        -0.017473     -0.043363      0.069218
Ir     10.55633     10.90761     14.89516        -0.021326     -0.006176      0.068703
Ir      7.28570     12.02592     11.36665         0.021271     -0.031486      0.003931
Ir     14.68708     10.84854     10.11087        -0.032075      0.025803      0.044551
Ir     12.19732     10.49182      9.65610         0.046355     -0.046935     -0.015814
Ir      8.78992     11.03673     13.01239         0.003921      0.065309     -0.041725
Ir     10.14140      9.86613     11.20813        -0.005356      0.016782     -0.067193
Ir     13.74922     11.36775     12.42853        -0.028246     -0.013682      0.054111
Ir     11.62217     12.28565     13.11236        -0.108529      0.009617     -0.005364
Ir      8.52901     11.07577      9.37754        -0.049335      0.037423     -0.029092
Ir     11.59848      7.97641     10.07365         0.040797      0.047556      0.030552
Ir      7.24303     13.00800      8.70106         0.031818      0.004258      0.008596
Ir      9.52115      6.99983      9.11865        -0.013317     -0.002464      0.045576
Ir      8.06652      8.74757     10.09838         0.006450      0.013767     -0.005504
Ir     10.75899     12.09551      8.53410        -0.026985      0.029694     -0.042246
Ir      9.56619      7.46412     11.67346        -0.017963      0.053533      0.044356
Ir     13.70180      8.70739      8.80773        -0.022464      0.042917      0.057904
