152
# total energy = -1005.94383583 eVH     10.35389      5.87395      7.64558         0.188041      0.065243      0.588205
H     10.62451     15.10445      7.64558        -0.103218     -0.152638      0.521603
H     10.62451      5.87395     13.33282         0.487089      0.119856     -0.599096
H     10.35389     15.10445     13.33282         0.057948     -0.183011     -0.515683
H      7.64558     10.35389      5.87395         0.362493      0.030223      0.172381
H      7.64558     10.62451     15.10445         0.689103      0.493471     -0.043785
H     13.33282     10.62451      5.87395        -0.490062      0.375788      0.094898
H     13.33282     10.35389     15.10445        -0.793948     -0.073421     -0.008668
H      5.87395      7.64558     10.35389         0.273326      1.042023     -0.031950
H     15.10445      7.64558     10.62451        -0.102162      0.483736      0.281294
H      5.87395     13.33282     10.62451         0.150278     -0.689540     -0.179728
H     15.10445     13.33282     10.35389        -0.025876     -1.027070     -0.287571
H      5.87395     10.35389      7.64558         0.231768      0.032104      0.488263
H     15.10445     10.62451      7.64558        -0.125671      0.436332      0.790431
H      5.87395     10.62451     13.33282         0.150627      0.358188     -0.699657
H     15.10445     10.35389     13.33282        -0.062983     -0.050786     -0.685231
H     10.35389      7.64558      5.87395         0.325365      1.099783      0.036239
H     10.62451      7.64558     15.10445         0.540459      0.545294     -0.118494
H     10.62451     13.33282      5.87395        -0.404543     -0.813675      0.219985
H     10.35389     13.33282     15.10445        -0.044648     -0.447096     -0.235904
H      7.64558      5.87395     10.35389         0.879389      0.065518     -0.249812
H      7.64558     15.10445     10.62451         0.831636     -0.195424     -0.025087
H     13.33282      5.87395     10.62451        -0.780480      0.190962      0.583897
H     13.33282     15.10445     10.35389        -0.416052     -0.107777     -0.122610
H     12.45634     12.45634     19.01126         0.238563      0.268064     -0.239672
H     19.01126     19.01126     19.01126        -0.261035     -0.241957     -0.261246
H     19.01126     12.45634     12.45634        -0.268527      0.266599      0.222157
H     12.45634     19.01126     12.45634         0.233450     -0.261089      0.271417
C     10.35284      5.61067      6.59456        -0.376892     -0.686317      0.003334
C     10.62556     15.36773      6.59456         0.072503      0.369489     -0.292434
C     10.62556      5.61067     14.38384        -0.314771     -0.405966     -0.256692
C     10.35284     15.36773     14.38384        -0.000034      0.278827      0.514042
C      6.59456     10.35284      5.61067        -0.348222     -0.002186     -0.260165
C      6.59456     10.62556     15.36773        -0.294814     -0.201025      0.790001
C     14.38384     10.62556      5.61067        -0.229506     -0.411289     -0.528109
C     14.38384     10.35284     15.36773         0.956279     -0.072830      0.211384
C      5.61067      6.59456     10.35284        -0.551157     -0.030126     -0.244831
C     15.36773      6.59456     10.62556         0.558253     -0.002684     -0.248655
C      5.61067     14.38384     10.62556        -0.316789      0.989331      0.076796
C     15.36773     14.38384     10.35284         0.275335      1.031210      0.055610
C      5.61067     10.35284      6.59456        -0.221480     -0.060642     -0.627557
C     15.36773     10.62556      6.59456         0.423156     -0.257254      0.121712
C      5.61067     10.62556     14.38384        -0.662118     -0.337999     -0.116049
C     15.36773     10.35284     14.38384         0.394011     -0.056856      1.026154
C     10.35284      6.59456      5.61067        -0.229490     -0.473149     -0.585734
C     10.62556      6.59456     15.36773        -0.245562      0.146886      0.448692
C     10.62556     14.38384      5.61067         0.214649      1.038016     -0.337422
C     10.35284     14.38384     15.36773         0.003606      0.622498      0.389516
C      6.59456      5.61067     10.35284        -0.069467     -0.949784      0.276958
C      6.59456     15.36773     10.62556        -1.010815      0.268707      0.089247
C     14.38384      5.61067     10.62556         0.438812     -0.533445     -0.375100
C     14.38384     15.36773     10.35284         0.198248      0.435430     -0.079352
C     10.40319      3.19606      7.29314         0.014987      0.688631     -0.495206
C     10.35913      4.25547      6.23373         0.085470     -0.608767      0.045431
C      0.08601      7.29314      7.29314        -0.044205     -0.414526     -0.321372
C      0.13007      6.23373      6.23373        -0.032226      0.092394      0.574211
C      0.08601      3.19606      3.19606         0.001950      1.325327      0.292650
C      0.13007      4.25547      4.25547         0.050681     -0.756049     -0.185529
C     10.40319      7.29314      3.19606         0.010866     -0.311000      0.294779
C     10.35913      6.23373      4.25547         0.021209      0.028234     -0.759730
C      7.29314     10.40319      3.19606        -0.267389      0.020374      0.566327
C      6.23373     10.35913      4.25547         0.165880      0.054382     -0.072305
C      7.29314      0.08601      7.29314        -0.527953     -0.066669     -0.370416
C      6.23373      0.13007      6.23373         0.693707     -0.072713      0.467831
C      3.19606      0.08601      3.19606         0.872456     -0.026506      0.591540
C      4.25547      0.13007      4.25547        -0.600712     -0.081910     -0.532274
C      3.19606     10.40319      7.29314         0.466246     -0.008622     -0.748510
C      4.25547     10.35913      6.23373        -0.292028      0.073933      0.194025
C      3.19606      7.29314     10.40319         0.297786     -1.284317      0.041595
C      4.25547      6.23373     10.35913        -0.940633      0.092431      0.126773
C      7.29314      7.29314      0.08601        -0.412434     -0.382076     -0.023368
C      6.23373      6.23373      0.13007         0.454096      0.230016     -0.007020
C      3.19606      3.19606      0.08601         0.485915      0.379357     -0.042151
C      4.25547      4.25547      0.13007        -0.151923     -0.646700     -0.034063
C      7.29314      3.19606     10.40319        -0.346137      0.446432      0.068253
C      6.23373      4.25547     10.35913         0.309928     -0.688299      0.147233
O     10.43466      3.58206      8.50569        -0.011476      0.105479      0.506912
O     10.54374     17.39634      8.50569         0.034903     -0.173006      0.495743
O     10.54374      3.58206     12.47271         0.044027     -0.103042     -0.179777
O     10.43466     17.39634     12.47271        -0.038708     -0.183709     -0.517348
O      8.50569     10.43466      3.58206         0.274407     -0.015478      0.015647
O      8.50569     10.54374     17.39634         0.632685      0.032301     -0.146984
O     12.47271     10.54374      3.58206        -0.791201      0.093729      0.101053
O     12.47271     10.43466     17.39634        -0.434662      0.023407     -0.100861
O      3.58206      8.50569     10.43466         0.151710      1.037303     -0.028025
O     17.39634      8.50569     10.54374        -0.161092      0.545964      0.076086
O      3.58206     12.47271     10.54374         0.085784     -0.376409      0.053755
O     17.39634     12.47271     10.43466        -0.153848     -0.540817     -0.024158
O      3.58206     10.43466      8.50569         0.081439     -0.069603      0.597314
O     17.39634     10.54374      8.50569        -0.106320      0.070641      0.522870
O      3.58206     10.54374     12.47271         0.006930      0.039836     -0.498117
O     17.39634     10.43466     12.47271        -0.232476     -0.040324     -0.634892
O     10.43466      8.50569      3.58206        -0.037273      0.445230      0.141099
O     10.54374      8.50569     17.39634         0.046319      0.540870     -0.156111
O     10.54374     12.47271      3.58206         0.025159     -1.047089      0.179155
O     10.43466     12.47271     17.39634         0.038069     -0.712695     -0.177902
O      8.50569      3.58206     10.43466         0.530700      0.150606     -0.057277
O      8.50569     17.39634     10.54374         0.488653     -0.195144      0.014754
O     12.47271      3.58206     10.54374        -0.624749      0.219628      0.003830
O     12.47271     17.39634     10.43466        -0.241076      0.059001     -0.045784
O     11.90042     11.90042     19.56718        -0.244505     -0.284662      0.247300
O     19.56718     19.56718     19.56718         0.309612      0.297600      0.301513
O     19.56718     11.90042     11.90042         0.299365     -0.263920     -0.235174
O     11.90042     19.56718     11.90042        -0.240249      0.296784     -0.316272
O      9.45224      1.03696      9.45224        -0.015084      0.092184     -0.076341
O      1.03696      9.45224      9.45224         0.088933     -0.087115     -0.133451
O      1.03696      1.03696      1.03696         0.093685      0.189680      0.055713
O      9.45224      9.45224      1.03696        -0.104748     -0.104525      0.037821
Zr     10.48920      2.52580     10.48920        -0.132600     -0.289195     -0.018737
Zr     10.48920     18.45260     10.48920        -0.064921      0.207365      0.061422
Zr     10.48920     10.48920      2.52580        -0.057086     -0.400466     -0.271100
Zr     10.48920     10.48920     18.45260        -0.257026     -0.119437      0.323097
Zr      2.52580     10.48920     10.48920        -0.382530      0.219584      0.244114
Zr     18.45260     10.48920     10.48920         0.227403      0.001822     -0.208118
Pd     13.58492      8.92169      9.27124        -0.001382     -0.002866     -0.011586
Pd      5.63683      9.89111     10.16410         0.000833     -0.022411     -0.001625
Pd      6.77684     11.85751     11.67690         0.004475     -0.009596      0.000604
Pd     12.15165     13.04410      7.32195        -0.018147     -0.007737      0.009176
Pd     11.92954      7.78590      7.41357        -0.002862     -0.013730      0.002504
Pd      8.29432      6.98787      6.57998         0.002523     -0.024446      0.010488
Pd     10.79395     11.19816      5.61880        -0.028905     -0.001656      0.000896
Pd     14.46202      8.54724      6.78584        -0.010649      0.000696     -0.006072
Pd      9.68534     11.77407      8.04987         0.006601     -0.010235      0.007246
Pd      6.80251      6.80458     12.29779        -0.007654      0.004514     -0.000173
Pd      6.43775      7.78284      8.24758         0.008875      0.029776     -0.015026
Pd      6.53836      8.51297     14.31013         0.022006      0.003059      0.001181
Pd     11.49330      6.49116      9.80422         0.010509      0.016286      0.016064
Pd      9.59558      9.26161      7.09761        -0.000275     -0.009528     -0.005580
Pd      9.00515     14.00124      9.30679        -0.005717      0.001204     -0.004590
Pd      9.53079      7.35305     11.72635         0.004864     -0.000613      0.001422
Pd     10.55816      8.97605      9.66851         0.012062      0.006528     -0.000262
Pd      9.31792     11.50354     10.63463         0.012305     -0.002139      0.008119
Pd      8.89971      7.01869      9.15045         0.006688      0.006763      0.005063
Pd      8.56685      6.61445     14.24433        -0.003078     -0.021273     -0.009612
Pd      7.69729      9.33682     11.92471         0.000267     -0.007379     -0.010058
Pd     11.99086     10.42639      7.79761         0.004100     -0.009179     -0.020183
Pd      7.14327     12.02710      9.02559        -0.005008      0.003872      0.001186
Pd      8.06628      9.57289      9.24499         0.013096      0.011253     -0.003213
Pd     14.02982      6.46598      8.49916         0.001470      0.004026     -0.000314
Pd     12.47025      8.29381     11.58475         0.030853      0.018722      0.004825
Pd      8.75128     11.59854     13.38242         0.006175     -0.021906      0.006318
Pd     13.91622     11.94897      8.98734        -0.001266      0.000846     -0.011580
Pd     12.91935     10.63248     13.05200         0.009286      0.013036      0.002597
Pd     14.78821     10.42078     11.11147         0.002153      0.003320     -0.009334
Pd     12.08454     10.84306     10.52965         0.004538      0.006658     -0.003339
Pd     11.45691     13.27793      9.86728        -0.002186      0.015700      0.014187
Pd     13.59746     12.88546     11.63909         0.003201      0.011007     -0.006197
Pd     11.10369     12.59446     12.47680         0.007037     -0.004959      0.017048
Pd     10.94557     11.11684     14.80055         0.009581     -0.024907      0.007057
Pd     10.46469      9.77037     12.37758         0.004620     -0.010351      0.004810
Pd      9.08507      9.18130     14.44375         0.023791     -0.020750      0.002141
Pd      8.81028     13.83478     11.97327         0.007465     -0.005878      0.006414
