152
# total energy = -1023.21367663 eVH     10.35389      5.87395      7.64558         0.495697      0.085233      0.720171
H     10.62451     15.10445      7.64558        -0.106481     -0.053677      0.817323
H     10.62451      5.87395     13.33282         0.144620      0.127540     -0.640122
H     10.35389     15.10445     13.33282        -0.166680     -0.124681     -0.537907
H      7.64558     10.35389      5.87395         0.310820     -0.022131      0.190013
H      7.64558     10.62451     15.10445         0.642764     -0.211828     -0.135233
H     13.33282     10.62451      5.87395        -0.781187     -0.167300      0.204288
H     13.33282     10.35389     15.10445        -0.430980     -0.100639     -0.059647
H      5.87395      7.64558     10.35389         0.210138      1.093734     -0.265186
H     15.10445      7.64558     10.62451        -0.176059      0.475032     -0.122972
H      5.87395     13.33282     10.62451         0.161003     -0.416931     -0.060333
H     15.10445     13.33282     10.35389        -0.130985     -0.913571      0.018183
H      5.87395     10.35389      7.64558         0.133153      0.098325      0.458862
H     15.10445     10.62451      7.64558         0.100591     -0.025439      1.051820
H      5.87395     10.62451     13.33282         0.193319     -0.026919     -0.382727
H     15.10445     10.35389     13.33282        -0.121518     -0.057008     -0.535923
H     10.35389      7.64558      5.87395         0.133647      0.868373      0.185773
H     10.62451      7.64558     15.10445        -0.010810      0.537490     -0.163141
H     10.62451     13.33282      5.87395        -0.013036     -0.583330      0.215514
H     10.35389     13.33282     15.10445        -0.284082     -0.888566     -0.130568
H      7.64558      5.87395     10.35389         0.444887      0.096101     -0.045033
H      7.64558     15.10445     10.62451         0.838522     -0.281825      0.027578
H     13.33282      5.87395     10.62451        -0.451083      0.187894     -0.066314
H     13.33282     15.10445     10.35389        -0.660100     -0.100400      0.165867
H     12.45634     12.45634     19.01126         0.252534      0.264203     -0.230187
H     19.01126     19.01126     19.01126        -0.252068     -0.229834     -0.261819
H     19.01126     12.45634     12.45634        -0.233869      0.272622      0.241707
H     12.45634     19.01126     12.45634         0.225055     -0.263137      0.250061
C     10.35284      5.61067      6.59456        -0.196741     -0.355562     -0.034933
C     10.62556     15.36773      6.59456         0.070668      0.364787     -1.236769
C     10.62556      5.61067     14.38384        -0.057166     -0.258289      0.817976
C     10.35284     15.36773     14.38384         0.040157      0.873097      0.420627
C      6.59456     10.35284      5.61067        -0.363305     -0.036050     -0.171285
C      6.59456     10.62556     15.36773        -0.836340      0.190451      0.368580
C     14.38384     10.62556      5.61067         0.479685      0.305820     -0.498114
C     14.38384     10.35284     15.36773         0.769818     -0.108979      0.444814
C      5.61067      6.59456     10.35284        -0.314398     -0.643404      0.436640
C     15.36773      6.59456     10.62556         0.164733     -0.510573      0.085595
C      5.61067     14.38384     10.62556        -0.144236      0.383312     -0.023302
C     15.36773     14.38384     10.35284         0.395407     -0.033462     -0.092831
C      5.61067     10.35284      6.59456        -0.259537     -0.023209     -0.784805
C     15.36773     10.62556      6.59456         0.608093     -0.267045     -1.340300
C      5.61067     10.62556     14.38384        -0.337989     -0.002362      0.424272
C     15.36773     10.35284     14.38384         0.490667     -0.163453      1.122317
C     10.35284      6.59456      5.61067        -0.170515     -0.471702     -0.433138
C     10.62556      6.59456     15.36773         0.057857     -0.643993      0.275197
C     10.62556     14.38384      5.61067         0.092754      0.983407     -0.495832
C     10.35284     14.38384     15.36773         0.257101      0.602199      0.516998
C      6.59456      5.61067     10.35284        -0.117470     -0.821232      0.074937
C      6.59456     15.36773     10.62556        -1.522052      0.416018      0.114122
C     14.38384      5.61067     10.62556         0.639370     -0.277074     -0.018474
C     14.38384     15.36773     10.35284        -0.425877      0.681985     -0.314989
C     10.40319      3.19606      7.29314         0.005826      0.828511     -0.294490
C     10.35913      4.25547      6.23373        -0.053515     -0.474521      0.496840
C      0.08601      7.29314      7.29314        -0.006310     -0.254118     -0.529127
C      0.13007      6.23373      6.23373         0.033306      0.153904      0.209966
C      0.08601      3.19606      3.19606        -0.010289      0.593647      0.197430
C      0.13007      4.25547      4.25547        -0.093162     -0.178008     -0.193615
C     10.40319      7.29314      3.19606        -0.008733     -0.633090      0.565327
C     10.35913      6.23373      4.25547        -0.044619      0.262253     -0.608607
C      7.29314     10.40319      3.19606        -0.301531      0.026394      0.950915
C      6.23373     10.35913      4.25547         0.168125      0.032563     -0.128338
C      7.29314      0.08601      7.29314        -0.306674     -0.035132     -0.300737
C      6.23373      0.13007      6.23373         0.329656     -0.050132      0.317355
C      3.19606      0.08601      3.19606         0.515603     -0.030573      0.703145
C      4.25547      0.13007      4.25547        -0.092506     -0.027736     -0.368858
C      3.19606     10.40319      7.29314         0.712857      0.001303     -0.411828
C      4.25547     10.35913      6.23373        -0.155651      0.028191      0.082008
C      3.19606      7.29314     10.40319         0.684431     -1.284716     -0.011394
C      4.25547      6.23373     10.35913        -0.660024      0.914257      0.079127
C      7.29314      7.29314      0.08601        -0.704108     -0.180336     -0.017930
C      6.23373      6.23373      0.13007         0.220101      0.201452      0.020250
C      3.19606      3.19606      0.08601         0.270823      0.299211     -0.020699
C      4.25547      4.25547      0.13007        -0.071141     -0.039728     -0.003297
C      7.29314      3.19606     10.40319        -0.360041      1.016195      0.016937
C      6.23373      4.25547     10.35913         1.068755     -0.022827      0.009177
O     10.43466      3.58206      8.50569        -0.042101      0.050856      0.387696
O     10.54374     17.39634      8.50569        -0.043257     -0.173211      0.594305
O     10.54374      3.58206     12.47271         0.049449      0.077177     -0.328291
O     10.43466     17.39634     12.47271        -0.008312     -0.141009     -0.634525
O      8.50569     10.43466      3.58206         0.332955     -0.031573     -0.033203
O      8.50569     10.54374     17.39634         0.471595      0.044203     -0.144760
O     12.47271     10.54374      3.58206        -0.473560      0.011664      0.084779
O     12.47271     10.43466     17.39634        -0.799294      0.001669     -0.191561
O      3.58206      8.50569     10.43466         0.108870      1.041458      0.016267
O     17.39634      8.50569     10.54374        -0.026069      0.304587      0.074652
O      3.58206     12.47271     10.54374         0.073317     -0.464711      0.050769
O     17.39634     12.47271     10.43466        -0.175772     -0.900130      0.058614
O      3.58206     10.43466      8.50569        -0.062643     -0.067871      0.331094
O     17.39634     10.54374      8.50569        -0.130384      0.041310      0.462649
O      3.58206     10.54374     12.47271         0.095834     -0.023557     -0.644715
O     17.39634     10.43466     12.47271        -0.188676      0.056723     -0.797055
O     10.43466      8.50569      3.58206         0.026956      0.636611      0.157272
O     10.54374      8.50569     17.39634         0.062146      0.435377     -0.079187
O     10.54374     12.47271      3.58206        -0.005472     -0.696193      0.224099
O     10.43466     12.47271     17.39634         0.033555     -0.841878     -0.239444
O      8.50569      3.58206     10.43466         0.436574      0.019492     -0.040892
O      8.50569     17.39634     10.54374         0.704174     -0.262946     -0.066377
O     12.47271      3.58206     10.54374        -0.461512      0.152580      0.042094
O     12.47271     17.39634     10.43466        -0.563348     -0.023700     -0.005270
O     11.90042     11.90042     19.56718        -0.294099     -0.313313      0.256545
O     19.56718     19.56718     19.56718         0.283482      0.260459      0.310958
O     19.56718     11.90042     11.90042         0.258665     -0.322086     -0.247223
O     11.90042     19.56718     11.90042        -0.272193      0.276756     -0.267405
O      9.45224      1.03696      9.45224        -0.082639      0.041141     -0.071612
O      1.03696      9.45224      9.45224         0.011753     -0.172481     -0.098509
O      1.03696      1.03696      1.03696         0.003073      0.069580      0.176738
O      9.45224      9.45224      1.03696        -0.062640     -0.105057      0.103554
Zr     10.48920      2.52580     10.48920         0.004477     -0.095341     -0.045167
Zr     10.48920     18.45260     10.48920         0.140518      0.371143      0.009160
Zr     10.48920     10.48920      2.52580         0.011683     -0.014265     -0.363870
Zr     10.48920     10.48920     18.45260        -0.151913     -0.048337      0.370671
Zr      2.52580     10.48920     10.48920        -0.331674      0.243098     -0.122655
Zr     18.45260     10.48920     10.48920         0.281267     -0.013378     -0.281035
Pd      8.98670     10.12078     13.30718        -0.062019     -0.028149      0.021828
Pd     10.67959      9.70545     10.86655        -0.016242     -0.033932     -0.067946
Pd     13.72197      8.36739     12.57772        -0.030543      0.041807      0.003383
Pd     11.00307     10.91065     14.95511        -0.031210     -0.019210      0.025367
Pd     12.90801     11.00045     12.94607         0.012053      0.018675      0.053507
Pd     15.11234     11.10101     11.31269        -0.018965     -0.038791     -0.000054
Pd      6.58733      7.71592     12.32419        -0.006960      0.028654      0.019181
Pd      9.31410      7.28425      9.87199        -0.002980     -0.006863     -0.021451
Pd      9.21468      7.46657     12.63639        -0.001531     -0.014200     -0.017936
Pd     11.62187      7.14096     11.43148        -0.002375      0.016657     -0.020578
Pd     11.70273      7.99264      8.92621         0.008201     -0.030801     -0.048667
Pd      7.38943     11.77416     11.77044        -0.021107     -0.002689     -0.006358
Pd      9.21318     14.79232      9.44440         0.006447     -0.029121      0.015296
Pd      8.41774     12.55309     14.24202        -0.027602     -0.011211      0.007330
Pd     14.09188     14.24957      8.31541         0.006353     -0.009913      0.000937
Pd     11.49574     13.65179      8.72160         0.025158     -0.017109      0.018499
Pd     14.16652     11.69066      8.89532        -0.004409     -0.008717     -0.002829
Pd      8.73074     14.03124     12.05370        -0.004606     -0.005023      0.009316
Pd     12.27463     13.47941     14.13405        -0.010696      0.025316     -0.002364
Pd     11.34916     14.43416     11.44085         0.014121     -0.031226      0.008085
Pd     14.08900     13.59642     12.27512        -0.004021     -0.016178     -0.007277
Pd     12.43144     12.18033     10.72427        -0.007185     -0.062105      0.015736
Pd     12.75198     12.50682      6.68820         0.002370      0.005052     -0.000885
Pd     13.93427      9.00353      8.01527         0.004712     -0.009612     -0.025228
Pd      6.93525      8.49464      8.75718        -0.002446     -0.009142     -0.018397
Pd      5.62470     10.11029     10.70951        -0.005894     -0.005545     -0.054239
Pd      9.39907      9.45222      8.13211         0.006632     -0.011891     -0.066231
Pd      8.56685      7.01882      7.24214        -0.016875     -0.027132     -0.014296
Pd      9.76768     12.13997     10.32618        -0.004794     -0.020305      0.026074
Pd     11.64113     10.80842      8.51553        -0.001588     -0.019743     -0.048190
Pd     11.58283      9.10065      6.48754         0.020652     -0.007339     -0.024830
Pd     10.07583     11.35715      6.37695         0.003885      0.011312     -0.006470
Ir     11.28897      8.98795     13.22709        -0.021127      0.027145     -0.056945
Ir     13.21634      9.62382     10.40468         0.003841     -0.020467     -0.013600
Ir     10.56008     12.21471     12.71379        -0.012664     -0.030853     -0.004012
Ir      7.60602     11.00020      9.24411         0.020686     -0.013847     -0.014779
Ir      8.78861     12.65836      8.07904         0.042566     -0.019272     -0.013749
Ir      8.18650      9.30037     11.00223        -0.004295     -0.010057     -0.003301
