152
# total energy = -1060.16245075 eVH     10.35389      5.87395      7.64558        -0.310982      0.101970      1.084107
H     10.62451     15.10445      7.64558         0.092242     -0.070651      0.891692
H     10.62451      5.87395     13.33282        -0.272323      0.073550     -0.784269
H     10.35389     15.10445     13.33282         0.098890     -0.301921     -0.823884
H      7.64558     10.35389      5.87395         0.894729     -0.205099      0.206848
H      7.64558     10.62451     15.10445         0.314145     -0.026722     -0.062944
H     13.33282     10.62451      5.87395        -0.885429      0.218791      0.220357
H     13.33282     10.35389     15.10445        -0.283048     -0.030291     -0.059382
H      5.87395      7.64558     10.35389         0.092814      0.422665     -0.009977
H     15.10445      7.64558     10.62451        -0.044591      0.437601     -0.029297
H      5.87395     13.33282     10.62451        -0.015868     -0.968641      0.078966
H     15.10445     13.33282     10.35389        -0.087826     -0.328718      0.001534
H      5.87395     10.35389      7.64558         0.317917      0.062112      0.371707
H     15.10445     10.62451      7.64558        -0.119074     -0.157687      0.668348
H      5.87395     10.62451     13.33282        -0.064212      0.452367     -0.604494
H     15.10445     10.35389     13.33282         0.228468     -0.634656     -0.884025
H     10.35389      7.64558      5.87395        -0.019446      0.499433      0.344851
H     10.62451      7.64558     15.10445         0.327544      0.787040     -0.009272
H     10.62451     13.33282      5.87395         0.149141     -0.569026      0.203355
H     10.35389     13.33282     15.10445         0.033845     -0.290394     -0.165374
H      7.64558      5.87395     10.35389         0.369896      0.113893      0.063277
H      7.64558     15.10445     10.62451         0.389296     -0.127935      0.179293
H     13.33282      5.87395     10.62451        -0.307215      0.137639     -0.014463
H     13.33282     15.10445     10.35389        -0.657928     -0.108858      0.138452
H     12.45634     12.45634     19.01126         0.259168      0.272546     -0.225923
H     19.01126     19.01126     19.01126        -0.248274     -0.267077     -0.244130
H     19.01126     12.45634     12.45634        -0.248974      0.271737      0.236823
H     12.45634     19.01126     12.45634         0.290036     -0.234837      0.235510
C     10.35284      5.61067      6.59456         0.400474     -0.416853     -1.355996
C     10.62556     15.36773      6.59456        -0.173572      0.609260     -0.660180
C     10.62556      5.61067     14.38384         0.366117     -0.272874      0.780755
C     10.35284     15.36773     14.38384        -0.205800      0.223961      1.027630
C      6.59456     10.35284      5.61067        -1.394815      0.032393     -0.227107
C      6.59456     10.62556     15.36773        -0.663278      0.065281      0.356956
C     14.38384     10.62556      5.61067         1.313286     -0.186121     -0.630952
C     14.38384     10.35284     15.36773         0.318801     -0.133500      0.355591
C      5.61067      6.59456     10.35284        -0.273859     -0.672213     -0.030848
C     15.36773      6.59456     10.62556         0.409582     -0.855144      0.027783
C      5.61067     14.38384     10.62556        -0.148520      1.193333     -0.217461
C     15.36773     14.38384     10.35284         0.501140      0.706919     -0.037431
C      5.61067     10.35284      6.59456        -0.369825     -0.102819     -0.772340
C     15.36773     10.62556      6.59456         0.400540      0.107722     -0.677659
C      5.61067     10.62556     14.38384        -0.404035     -0.162712      1.220487
C     15.36773     10.35284     14.38384         0.227832      0.227756      1.413311
C     10.35284      6.59456      5.61067        -0.069321     -0.745108     -0.544586
C     10.62556      6.59456     15.36773        -0.140293     -0.978117      0.374656
C     10.62556     14.38384      5.61067        -0.495024      0.386229     -0.738132
C     10.35284     14.38384     15.36773        -0.173249      0.731272      0.491827
C      6.59456      5.61067     10.35284        -0.561966     -0.337068      0.003640
C      6.59456     15.36773     10.62556        -0.362794      0.444940      0.065787
C     14.38384      5.61067     10.62556         0.435279     -0.310279      0.007696
C     14.38384     15.36773     10.35284         1.128938      0.482896     -0.080053
C     10.40319      3.19606      7.29314        -0.008125      0.793774     -0.338858
C     10.35913      4.25547      6.23373         0.024103     -0.377507      0.292718
C      0.08601      7.29314      7.29314        -0.018194     -0.383571     -0.504605
C      0.13007      6.23373      6.23373        -0.047347      0.875777      0.093259
C      0.08601      3.19606      3.19606        -0.006835      0.697040      0.259803
C      0.13007      4.25547      4.25547         0.047171     -0.267376     -0.548764
C     10.40319      7.29314      3.19606        -0.063851     -1.113260      0.627412
C     10.35913      6.23373      4.25547        -0.047859      0.348469     -0.204196
C      7.29314     10.40319      3.19606        -1.092147     -0.054483      0.202347
C      6.23373     10.35913      4.25547         0.380574      0.102256     -0.524897
C      7.29314      0.08601      7.29314        -0.485487      0.028835     -0.436702
C      6.23373      0.13007      6.23373         0.179201      0.121217      0.119401
C      3.19606      0.08601      3.19606         0.702524      0.022989      0.169994
C      4.25547      0.13007      4.25547        -0.173620     -0.051218     -0.365468
C      3.19606     10.40319      7.29314         0.377507     -0.026895     -0.951725
C      4.25547     10.35913      6.23373        -0.129384     -0.053720      0.115666
C      3.19606      7.29314     10.40319         0.616908     -0.398846      0.002538
C      4.25547      6.23373     10.35913        -0.114652      0.178396      0.010659
C      7.29314      7.29314      0.08601        -0.429280     -0.293274     -0.015013
C      6.23373      6.23373      0.13007         0.147606      0.154703     -0.063347
C      3.19606      3.19606      0.08601         0.293942      0.493373     -0.024665
C      4.25547      4.25547      0.13007        -0.404328     -0.240819     -0.030824
C      7.29314      3.19606     10.40319        -0.283390      0.594163     -0.009345
C      6.23373      4.25547     10.35913         0.016140     -0.093733      0.015701
O     10.43466      3.58206      8.50569        -0.026350      0.071093      0.300717
O     10.54374     17.39634      8.50569         0.063613     -0.122378      0.589373
O     10.54374      3.58206     12.47271         0.029049      0.101610     -0.397649
O     10.43466     17.39634     12.47271         0.094360     -0.062210     -0.437688
O      8.50569     10.43466      3.58206         0.734257     -0.073151      0.017272
O      8.50569     10.54374     17.39634         0.542502      0.063014     -0.103467
O     12.47271     10.54374      3.58206        -0.657271      0.113516      0.211284
O     12.47271     10.43466     17.39634        -0.282477      0.003833      0.037110
O      3.58206      8.50569     10.43466         0.033362      0.444239     -0.064259
O     17.39634      8.50569     10.54374        -0.054703      0.446231      0.056673
O      3.58206     12.47271     10.54374         0.105122     -0.588459      0.003531
O     17.39634     12.47271     10.43466        -0.183222     -0.741189     -0.047959
O      3.58206     10.43466      8.50569         0.207746     -0.060359      0.805453
O     17.39634     10.54374      8.50569        -0.069384      0.070909      0.483766
O      3.58206     10.54374     12.47271        -0.004628     -0.004364     -0.261496
O     17.39634     10.43466     12.47271         0.033410     -0.009810     -0.234023
O     10.43466      8.50569      3.58206        -0.107910      0.532931     -0.100026
O     10.54374      8.50569     17.39634         0.060256      0.512331     -0.082969
O     10.54374     12.47271      3.58206         0.102891     -0.638146      0.129150
O     10.43466     12.47271     17.39634        -0.064800     -0.700208     -0.281466
O      8.50569      3.58206     10.43466         0.396347      0.023258     -0.046607
O      8.50569     17.39634     10.54374         0.639736     -0.154104      0.046061
O     12.47271      3.58206     10.54374        -0.516144      0.121218      0.028633
O     12.47271     17.39634     10.43466        -0.624379     -0.123395      0.041498
O     11.90042     11.90042     19.56718        -0.278173     -0.303234      0.222532
O     19.56718     19.56718     19.56718         0.309695      0.322140      0.298112
O     19.56718     11.90042     11.90042         0.283543     -0.324872     -0.235211
O     11.90042     19.56718     11.90042        -0.314478      0.229563     -0.201314
O      9.45224      1.03696      9.45224        -0.075970      0.089728     -0.077608
O      1.03696      9.45224      9.45224         0.102994     -0.110203     -0.060675
O      1.03696      1.03696      1.03696         0.078907      0.055008      0.098441
O      9.45224      9.45224      1.03696        -0.059200     -0.125028      0.137045
Zr     10.48920      2.52580     10.48920         0.042866     -0.096005      0.122169
Zr     10.48920     18.45260     10.48920        -0.181804      0.246615     -0.360626
Zr     10.48920     10.48920      2.52580         0.113011      0.355957     -0.345335
Zr     10.48920     10.48920     18.45260        -0.080853     -0.260916      0.235480
Zr      2.52580     10.48920     10.48920        -0.241504      0.129407      0.245697
Zr     18.45260     10.48920     10.48920         0.196120     -0.138043     -0.024713
Pd      9.36047     14.30553      9.30698        -0.001030      0.022451     -0.024982
Pd      8.59439     13.64698     13.04571         0.009241     -0.001551      0.010671
Pd     12.02570     14.40093      8.74748         0.008041     -0.006551      0.009711
Pd     12.75003     12.87762     10.69193        -0.030185     -0.008895      0.030949
Pd     12.11982      7.18960     12.67543         0.002624     -0.002478     -0.004034
Pd     11.15265     14.90878     11.44867        -0.016263      0.019201     -0.012976
Pd     10.03005     12.55939     11.07902        -0.028607      0.023257     -0.014224
Pd     13.48078     12.15454      7.98568         0.003933      0.003110      0.008345
Pd     11.48108     11.54541      6.10728         0.003227      0.009057     -0.000153
Pd      7.94135      8.37378      7.52256        -0.001702     -0.020368     -0.004970
Pd      8.71812     11.75766      6.84392        -0.002892      0.002608     -0.000281
Pd     10.31784      9.45214      8.15332        -0.013041      0.001585      0.008257
Pd      8.49478     14.46463      6.78678        -0.006642      0.003017     -0.014132
Pd     12.39410      9.02288      6.57381        -0.005949      0.019768      0.022910
Pd      9.71832      9.61107      5.57438         0.003262      0.004891      0.002412
Pd      6.82188      9.45592     12.14306         0.015593      0.005961     -0.000091
Pd     12.18105      6.74604      7.95501         0.009289      0.002355      0.002895
Pd      5.91252     10.48245      9.69579        -0.001464     -0.005025      0.007666
Pd      7.55037      7.23851     13.40600         0.001266     -0.006296     -0.008978
Ir     11.73056      9.77274     13.06812        -0.012313     -0.023403      0.001609
Ir     13.54913      9.05764     11.47742        -0.011347      0.014936      0.015632
Ir      9.42147      8.86660     14.01084        -0.022112     -0.004813      0.007262
Ir     10.50593     11.00553     14.90355        -0.014242     -0.050242      0.078719
Ir      7.27040     12.01522     11.34169        -0.003739     -0.001290      0.002811
Ir     14.64576     10.91715     10.15891        -0.025792      0.024828      0.047195
Ir     12.16172     10.57311      9.67761        -0.001737      0.012518     -0.011753
Ir      8.75548     11.00774     12.99002         0.029544      0.028916     -0.003910
Ir     10.10422      9.91842     11.16938         0.001323      0.014252     -0.027730
Ir     13.72773     11.41845     12.50063        -0.034858     -0.001006      0.039672
Ir     11.57219     12.34556     13.09322        -0.088886     -0.019433      0.006452
Ir      8.49654     11.09748      9.33386        -0.011634      0.016318     -0.005935
Ir     11.59304      8.02694     10.14529         0.008296     -0.003112      0.010274
Ir      7.21873     13.03362      8.65778         0.015800      0.008489      0.015533
Ir      9.54836      6.96266      9.23876         0.005221     -0.001269      0.000505
Ir      8.05173      8.76380     10.05742        -0.004333      0.000314     -0.004170
Ir     10.71963     12.12293      8.50074         0.003909     -0.005706     -0.008378
Ir      9.51388      7.57416     11.75553         0.004246      0.003252     -0.001185
Ir     13.66849      8.80205      8.84524         0.027660     -0.000453      0.019346
