152
# total energy = -1092.74033385 eVH     10.35389      5.87395      7.64558         0.397533     -0.114941      1.333678
H     10.62451     15.10445      7.64558        -0.464253      0.258988      1.692873
H     10.62451      5.87395     13.33282         0.269046     -0.102650     -1.450931
H     10.35389     15.10445     13.33282        -0.372171      0.083209     -1.468445
H      7.64558     10.35389      5.87395         0.390492      0.002627     -0.031322
H      7.64558     10.62451     15.10445         0.408531     -0.020997      0.016242
H     13.33282     10.62451      5.87395        -0.613116     -0.024125      0.048303
H     13.33282     10.35389     15.10445        -0.429149      0.067592      0.012211
H      5.87395      7.64558     10.35389         0.028826      1.349434     -0.011448
H     15.10445      7.64558     10.62451        -0.006992      0.643342      0.028658
H      5.87395     13.33282     10.62451        -0.050045     -0.368704      0.017927
H     15.10445     13.33282     10.35389         0.302521     -1.707136      0.190469
H      5.87395     10.35389      7.64558        -0.220410     -0.439648      0.298592
H     15.10445     10.62451      7.64558         0.412511      0.538809     -0.043698
H      5.87395     10.62451     13.33282        -0.158343     -0.168432     -0.133410
H     15.10445     10.35389     13.33282         0.020236      0.007162      0.082442
H     10.35389      7.64558      5.87395        -0.314795      0.300320      0.017412
H     10.62451      7.64558     15.10445         0.120146      0.617537      0.225060
H     10.62451     13.33282      5.87395        -0.120380     -0.732301     -0.124237
H     10.35389     13.33282     15.10445        -0.132356     -0.477417      0.284504
H      7.64558      5.87395     10.35389         0.388784     -0.020489     -0.089288
H      7.64558     15.10445     10.62451         0.329586      0.022267     -0.103681
H     13.33282      5.87395     10.62451        -0.294173     -0.054361     -0.006052
H     13.33282     15.10445     10.35389        -0.450408      0.185389     -0.079657
H     12.45634     12.45634     19.01126         0.263084      0.245964     -0.243408
H     19.01126     19.01126     19.01126        -0.258687     -0.245267     -0.250436
H     19.01126     12.45634     12.45634        -0.258004      0.266740      0.233952
H     12.45634     19.01126     12.45634         0.270136     -0.256796      0.228756
C     10.35284      5.61067      6.59456        -0.304754     -0.204955     -1.638238
C     10.62556     15.36773      6.59456         0.471238      0.116623     -1.871339
C     10.62556      5.61067     14.38384        -0.410735     -0.061097      1.662523
C     10.35284     15.36773     14.38384         0.424715      0.045131      1.803570
C      6.59456     10.35284      5.61067        -0.680445     -0.058999     -0.345584
C      6.59456     10.62556     15.36773        -0.827156     -0.031639      0.087526
C     14.38384     10.62556      5.61067         0.924458      0.010896     -0.144805
C     14.38384     10.35284     15.36773         0.763568      0.020919      0.179603
C      5.61067      6.59456     10.35284        -0.094720     -1.173123     -0.030024
C     15.36773      6.59456     10.62556         0.176586     -1.024893      0.009250
C      5.61067     14.38384     10.62556        -0.269257      0.769248      0.018046
C     15.36773     14.38384     10.35284         0.031996      1.613573     -0.046693
C      5.61067     10.35284      6.59456        -0.748724      0.077800     -1.881165
C     15.36773     10.62556      6.59456         0.778916     -0.097009     -2.021137
C      5.61067     10.62556     14.38384        -0.719148      0.059721      1.855686
C     15.36773     10.35284     14.38384         0.605325     -0.065432      1.539268
C     10.35284      6.59456      5.61067         0.101770     -1.478046     -0.763204
C     10.62556      6.59456     15.36773        -0.069819     -1.664861      0.877950
C     10.62556     14.38384      5.61067         0.038586      1.619982     -0.939213
C     10.35284     14.38384     15.36773        -0.045873      1.779991      0.896467
C      6.59456      5.61067     10.35284        -0.535281     -0.877923     -0.103975
C      6.59456     15.36773     10.62556        -1.229770      0.687326      0.088043
C     14.38384      5.61067     10.62556         1.181039     -0.782349      0.067139
C     14.38384     15.36773     10.35284         0.593129      1.102285      0.035685
C     10.40319      3.19606      7.29314         0.015624      0.516034     -0.474322
C     10.35913      4.25547      6.23373        -0.005934     -0.802654      0.446789
C      0.08601      7.29314      7.29314         0.019249     -0.506235     -0.521355
C      0.13007      6.23373      6.23373         0.005648      0.929785      0.494480
C      0.08601      3.19606      3.19606         0.000155      0.618351      0.386026
C      0.13007      4.25547      4.25547        -0.032900     -0.852832     -0.459817
C     10.40319      7.29314      3.19606         0.030539     -0.586696      0.468740
C     10.35913      6.23373      4.25547         0.076246      0.665610     -0.462322
C      7.29314     10.40319      3.19606        -0.303381     -0.002824      0.573038
C      6.23373     10.35913      4.25547         0.178319     -0.059019     -0.218374
C      7.29314      0.08601      7.29314        -0.249435     -0.018268     -0.411132
C      6.23373      0.13007      6.23373         0.103900     -0.068267      0.399910
C      3.19606      0.08601      3.19606         0.355582      0.004718      0.460019
C      4.25547      0.13007      4.25547        -0.182503      0.059022     -0.305308
C      3.19606     10.40319      7.29314         0.276613      0.017277     -0.508335
C      4.25547     10.35913      6.23373        -0.179545      0.082252      0.482124
C      3.19606      7.29314     10.40319         0.204353     -0.375777     -0.007086
C      4.25547      6.23373     10.35913        -0.617917      0.239249      0.075797
C      7.29314      7.29314      0.08601        -0.575872     -0.331189      0.003354
C      6.23373      6.23373      0.13007         0.092627      0.273217     -0.046361
C      3.19606      3.19606      0.08601         0.524179      0.345391     -0.010410
C      4.25547      4.25547      0.13007        -0.052499     -0.136416     -0.023501
C      7.29314      3.19606     10.40319        -0.255670      0.461008     -0.014695
C      6.23373      4.25547     10.35913         0.784126     -0.314465      0.046849
O     10.43466      3.58206      8.50569         0.007325      0.223154      0.439469
O     10.54374     17.39634      8.50569        -0.021510     -0.215784      0.471449
O     10.54374      3.58206     12.47271         0.074891      0.160349     -0.350619
O     10.43466     17.39634     12.47271        -0.122963     -0.190923     -0.367294
O      8.50569     10.43466      3.58206         0.407086     -0.028503      0.078968
O      8.50569     10.54374     17.39634         0.439243      0.056048     -0.120228
O     12.47271     10.54374      3.58206        -0.476384     -0.006327      0.121745
O     12.47271     10.43466     17.39634        -0.443781     -0.051477     -0.123192
O      3.58206      8.50569     10.43466         0.181633      0.444717     -0.051815
O     17.39634      8.50569     10.54374        -0.073772      0.479528      0.032407
O      3.58206     12.47271     10.54374         0.061828     -0.477861      0.042479
O     17.39634     12.47271     10.43466        -0.205210     -0.510877     -0.008082
O      3.58206     10.43466      8.50569         0.181325     -0.017405      0.493247
O     17.39634     10.54374      8.50569        -0.136958     -0.009465      0.459746
O      3.58206     10.54374     12.47271         0.200003      0.072240     -0.457005
O     17.39634     10.43466     12.47271        -0.200515     -0.036509     -0.557213
O     10.43466      8.50569      3.58206         0.042614      0.563469      0.257483
O     10.54374      8.50569     17.39634         0.059737      0.548490     -0.237571
O     10.54374     12.47271      3.58206        -0.006763     -0.649743      0.278726
O     10.43466     12.47271     17.39634        -0.040838     -0.533337     -0.241143
O      8.50569      3.58206     10.43466         0.533939      0.146872     -0.033766
O      8.50569     17.39634     10.54374         0.619608     -0.138818      0.060105
O     12.47271      3.58206     10.54374        -0.609662      0.147688      0.004020
O     12.47271     17.39634     10.43466        -0.498896     -0.146202     -0.010195
O     11.90042     11.90042     19.56718        -0.306072     -0.288579      0.265288
O     19.56718     19.56718     19.56718         0.306785      0.279265      0.285924
O     19.56718     11.90042     11.90042         0.310990     -0.321303     -0.245241
O     11.90042     19.56718     11.90042        -0.323091      0.284864     -0.232038
O      9.45224      1.03696      9.45224        -0.045046      0.047643     -0.073940
O      1.03696      9.45224      9.45224         0.035734     -0.072685     -0.061795
O      1.03696      1.03696      1.03696         0.038576      0.041613      0.121777
O      9.45224      9.45224      1.03696        -0.037156     -0.080145      0.122421
Zr     10.48920      2.52580     10.48920        -0.115275     -0.102959      0.025234
Zr     10.48920     18.45260     10.48920         0.128553      0.179066     -0.120549
Zr     10.48920     10.48920      2.52580        -0.001348      0.095219     -0.305895
Zr     10.48920     10.48920     18.45260        -0.014509     -0.030467      0.161368
Zr      2.52580     10.48920     10.48920        -0.051108     -0.015781     -0.056603
Zr     18.45260     10.48920     10.48920         0.128222      0.085878     -0.123975
Pd     13.12163      8.22938      7.78499         0.006392     -0.125820     -0.041194
Pd      9.35798     14.57666     11.78214         0.002904     -0.058553     -0.045232
Pd     12.31018     11.07311     10.47836         0.040575     -0.047858      0.000400
Pd     14.64589     10.42513     11.64327         0.022241     -0.102258     -0.006375
Pd     11.04433      9.24674      6.29388         0.028388      0.091756      0.013308
Pd      6.76897      8.25420      8.63171         0.094381     -0.019585      0.293680
Ir     10.18886     11.90967     11.79838        -0.041014     -0.105733     -0.023120
Ir     13.05505      8.46047     10.45693        -0.081621     -0.024168     -0.038488
Ir     12.28802     11.08126      7.79427        -0.092525      0.022510     -0.023649
Ir      9.48865     14.30456      9.12741         0.015356      0.124230      0.052328
Ir     10.88732      9.28765     11.77021        -0.006191     -0.116114      0.121168
Ir      8.71148      9.90959      7.85842        -0.021005     -0.067611     -0.091644
Ir     13.79874     12.70817      9.06540        -0.059452     -0.019298     -0.015272
Ir     11.85828     13.64488      7.81921        -0.060096     -0.079689      0.041857
Ir     14.33550     10.15599      9.13750         0.117338     -0.019477     -0.131370
Ir      9.40856      7.37257     10.55869         0.011896      0.017057     -0.087568
Ir      8.06456     12.55049      7.84191        -0.026438     -0.017647      0.008836
Ir      9.21835      7.48198      8.05070         0.073784     -0.004767     -0.082615
Ir     11.69927     13.66752     13.05784         0.057554      0.049796      0.061174
Ir     11.62471      6.82577     11.86962        -0.064531      0.062054     -0.122239
Ir     10.16371     11.77065      9.12626        -0.030599      0.089389      0.108186
Ir     13.04510      8.51323     13.10441         0.029090     -0.031069     -0.053645
Ir     10.91500      9.16146      9.06876        -0.027418     -0.053237      0.016105
Ir     11.60547     13.69717     10.40866         0.054665     -0.044993      0.005995
Ir     13.70059     12.96547     11.85007         0.008030     -0.122517     -0.038821
Ir     12.34829     11.16717     13.13944         0.092211     -0.075116      0.062680
Ir     10.08999     11.62967      6.55299         0.053373      0.065451     -0.098439
Ir     11.52287      6.64484      9.31133        -0.058476      0.107000      0.160562
Ir      7.29176      8.19352     11.82693         0.035895      0.011885     -0.027703
Ir      8.07470     12.61500     10.46492         0.078159      0.074115     -0.033248
Ir     10.97247      9.33139     14.32927        -0.070264      0.039130     -0.010759
Ir      7.99119     12.43988     13.04214         0.052584      0.073981     -0.085543
Ir      6.61555     10.90990      9.20298        -0.050705      0.049775      0.035732
Ir      8.70946      9.93077     13.12335        -0.052611     -0.058722     -0.001675
Ir      6.59763     10.72437     11.63111        -0.030273     -0.052800     -0.134167
Ir      9.20585      7.36343     13.16653         0.053075      0.109719     -0.153341
Ir     10.08218     11.66717     14.38671         0.193835      0.009574      0.012890
Ir      8.74974      9.94025     10.47259        -0.201037     -0.077900      0.022955
