152
# total energy = -1024.45374756 eVH     10.35389      5.87395      7.64558         0.486205      0.025493      0.754812
H     10.62451     15.10445      7.64558         0.066706     -0.201135      0.621608
H     10.62451      5.87395     13.33282         0.104555      0.147966     -0.588799
H     10.35389     15.10445     13.33282        -0.514278     -0.024108     -0.755599
H      7.64558     10.35389      5.87395         0.350198      0.026368      0.163256
H      7.64558     10.62451     15.10445         0.966948     -0.238532      0.060133
H     13.33282     10.62451      5.87395        -0.802410     -0.131625      0.153477
H     13.33282     10.35389     15.10445        -0.907632     -0.456774      0.218698
H      5.87395      7.64558     10.35389         0.158845      0.727569     -0.303550
H     15.10445      7.64558     10.62451        -0.142232      0.380573     -0.014959
H      5.87395     13.33282     10.62451         0.155547     -0.501502     -0.099777
H     15.10445     13.33282     10.35389        -0.090778     -1.174759      0.110430
H      5.87395     10.35389      7.64558         0.138133      0.164820      0.502415
H     15.10445     10.62451      7.64558         0.006197      0.111039      1.022057
H      5.87395     10.62451     13.33282         0.068126     -0.039456     -0.472513
H     15.10445     10.35389     13.33282        -0.192261     -0.133486     -0.415378
H     10.35389      7.64558      5.87395         0.079929      0.992856      0.221793
H     10.62451      7.64558     15.10445         0.001756      0.270852     -0.155780
H     10.62451     13.33282      5.87395        -0.085200     -0.392739      0.318761
H     10.35389     13.33282     15.10445        -0.433302     -0.565491      0.004126
H      7.64558      5.87395     10.35389         0.546983      0.082555     -0.114755
H      7.64558     15.10445     10.62451         0.959223     -0.199500     -0.210551
H     13.33282      5.87395     10.62451        -0.589240      0.086477     -0.068858
H     13.33282     15.10445     10.35389        -0.576724     -0.066418      0.265195
H     12.45634     12.45634     19.01126         0.237986      0.276767     -0.237165
H     19.01126     19.01126     19.01126        -0.248121     -0.249592     -0.242579
H     19.01126     12.45634     12.45634        -0.267313      0.264710      0.219256
H     12.45634     19.01126     12.45634         0.236654     -0.266921      0.240802
C     10.35284      5.61067      6.59456        -0.217244     -0.676731      0.081122
C     10.62556     15.36773      6.59456        -0.050688      0.378629     -0.841431
C     10.62556      5.61067     14.38384        -0.006811     -0.058793      0.724922
C     10.35284     15.36773     14.38384         0.207696      0.696253      0.164440
C      6.59456     10.35284      5.61067        -0.364870     -0.015143     -0.304872
C      6.59456     10.62556     15.36773        -1.112740      0.261433      0.283564
C     14.38384     10.62556      5.61067         0.441267      0.374249     -0.676063
C     14.38384     10.35284     15.36773         1.120783      0.049047      0.208453
C      5.61067      6.59456     10.35284        -0.437236     -0.372974      0.356127
C     15.36773      6.59456     10.62556         0.189028     -0.496217      0.009688
C      5.61067     14.38384     10.62556        -0.206287      0.540424     -0.010521
C     15.36773     14.38384     10.35284         0.305284      0.043978     -0.116587
C      5.61067     10.35284      6.59456        -0.332889     -0.083897     -0.989361
C     15.36773     10.62556      6.59456         0.894909     -0.342102     -0.953403
C      5.61067     10.62556     14.38384        -0.443427      0.029885      0.303763
C     15.36773     10.35284     14.38384         0.646473     -0.097968      1.043163
C     10.35284      6.59456      5.61067        -0.252524     -0.565993     -0.943058
C     10.62556      6.59456     15.36773         0.062446     -0.256079      0.049127
C     10.62556     14.38384      5.61067         0.061363      1.197815     -0.414107
C     10.35284     14.38384     15.36773         0.275815      0.177570      0.729583
C      6.59456      5.61067     10.35284        -0.195239     -0.742444      0.172443
C      6.59456     15.36773     10.62556        -1.260712      0.242437      0.183607
C     14.38384      5.61067     10.62556         1.088140     -0.299771      0.041315
C     14.38384     15.36773     10.35284        -0.454499      0.776164     -0.408531
C     10.40319      3.19606      7.29314        -0.035975      0.917781     -0.427756
C     10.35913      4.25547      6.23373         0.055464     -0.538490      0.530754
C      0.08601      7.29314      7.29314        -0.021183     -0.393368     -0.347521
C      0.13007      6.23373      6.23373        -0.024843      0.013734      0.097925
C      0.08601      3.19606      3.19606         0.010325      1.274129      0.197202
C      0.13007      4.25547      4.25547        -0.046977     -0.226549     -0.204356
C     10.40319      7.29314      3.19606        -0.013469     -1.056282      0.373261
C     10.35913      6.23373      4.25547         0.042062      0.485711     -0.663856
C      7.29314     10.40319      3.19606        -0.320432      0.028501      0.725930
C      6.23373     10.35913      4.25547         0.137441      0.058413     -0.099481
C      7.29314      0.08601      7.29314        -0.665187     -0.017648     -0.266863
C      6.23373      0.13007      6.23373         0.377444     -0.081441      0.565443
C      3.19606      0.08601      3.19606         1.000964     -0.006402      0.256818
C      4.25547      0.13007      4.25547        -0.171505     -0.037442     -0.525528
C      3.19606     10.40319      7.29314         0.357331     -0.009087     -0.925215
C      4.25547     10.35913      6.23373        -0.272011      0.090940      0.233072
C      3.19606      7.29314     10.40319         0.522013     -1.367728     -0.037108
C      4.25547      6.23373     10.35913        -0.566885      0.723011      0.102115
C      7.29314      7.29314      0.08601        -0.388897     -0.242196      0.003341
C      6.23373      6.23373      0.13007         0.157850      0.154319     -0.002026
C      3.19606      3.19606      0.08601         0.267963      0.240949     -0.016718
C      4.25547      4.25547      0.13007        -0.124997     -0.051699      0.005519
C      7.29314      3.19606     10.40319        -0.397354      0.616818      0.006662
C      6.23373      4.25547     10.35913         1.058613     -0.147958      0.051438
O     10.43466      3.58206      8.50569        -0.023520      0.034057      0.438058
O     10.54374     17.39634      8.50569        -0.005899     -0.116258      0.468820
O     10.54374      3.58206     12.47271         0.040879     -0.106771     -0.130482
O     10.43466     17.39634     12.47271        -0.058447     -0.042419     -0.476268
O      8.50569     10.43466      3.58206         0.290295     -0.028042     -0.040085
O      8.50569     10.54374     17.39634         0.719169      0.028971     -0.205617
O     12.47271     10.54374      3.58206        -0.782075     -0.038136      0.148471
O     12.47271     10.43466     17.39634        -0.284863     -0.030166      0.034401
O      3.58206      8.50569     10.43466         0.158772      1.118726     -0.029967
O     17.39634      8.50569     10.54374        -0.101706      0.445007      0.059629
O      3.58206     12.47271     10.54374         0.067385     -0.394116      0.035442
O     17.39634     12.47271     10.43466        -0.157515     -0.668924     -0.010596
O      3.58206     10.43466      8.50569         0.067861     -0.068094      0.794030
O     17.39634     10.54374      8.50569        -0.062152      0.043728      0.329523
O      3.58206     10.54374     12.47271        -0.011308      0.037801     -0.239928
O     17.39634     10.43466     12.47271        -0.255287     -0.005221     -0.718846
O     10.43466      8.50569      3.58206         0.118860      0.837042      0.192408
O     10.54374      8.50569     17.39634         0.032345      0.596037     -0.141303
O     10.54374     12.47271      3.58206         0.004501     -1.012211      0.176616
O     10.43466     12.47271     17.39634        -0.044465     -0.955101     -0.213826
O      8.50569      3.58206     10.43466         0.566896      0.131465     -0.015965
O      8.50569     17.39634     10.54374         0.501307     -0.192701     -0.010641
O     12.47271      3.58206     10.54374        -0.481550      0.163161      0.059287
O     12.47271     17.39634     10.43466        -0.402244      0.035546     -0.007964
O     11.90042     11.90042     19.56718        -0.270086     -0.324726      0.257156
O     19.56718     19.56718     19.56718         0.276944      0.293595      0.284163
O     19.56718     11.90042     11.90042         0.301514     -0.300472     -0.202760
O     11.90042     19.56718     11.90042        -0.263386      0.284454     -0.249338
O      9.45224      1.03696      9.45224        -0.080977      0.049884     -0.058769
O      1.03696      9.45224      9.45224         0.042579     -0.153922     -0.113800
O      1.03696      1.03696      1.03696         0.024313      0.121564      0.196349
O      9.45224      9.45224      1.03696        -0.069882     -0.086591      0.117315
Zr     10.48920      2.52580     10.48920        -0.050782     -0.127322     -0.166960
Zr     10.48920     18.45260     10.48920         0.007678      0.214522     -0.026926
Zr     10.48920     10.48920      2.52580        -0.163865     -0.194014     -0.512595
Zr     10.48920     10.48920     18.45260         0.011410     -0.030146      0.433090
Zr      2.52580     10.48920     10.48920        -0.370442      0.311895      0.169402
Zr     18.45260     10.48920     10.48920         0.205005      0.068495     -0.202931
Pd      8.27401      9.65321     13.27263        -0.007162      0.001352      0.008685
Pd     10.47478      9.42463     10.20137         0.000574     -0.010578     -0.000743
Pd     12.96407      8.78977     12.48042         0.005772      0.003181     -0.005387
Pd     10.29441     10.83611     15.07087        -0.005391     -0.005058     -0.002166
Pd     12.75507     11.36935     13.61991         0.000039      0.011277     -0.003157
Pd     14.84791     10.55019     11.35783         0.004454     -0.002471     -0.002284
Pd      6.89955      7.44767     12.30426        -0.015497     -0.010169      0.001917
Pd      9.20563      7.17000      9.47205        -0.003952      0.002939     -0.003577
Pd      9.59255      7.53499     12.22475         0.000880     -0.006620      0.007604
Pd     11.75319      7.06215     10.79964        -0.007078      0.009346     -0.003077
Pd     11.61023      7.81796      8.25779        -0.000194     -0.006933      0.013374
Pd      7.17513     11.65465     11.52807        -0.005008      0.000881     -0.015156
Pd      9.27263     14.31009      9.24388        -0.006393      0.002885      0.001769
Pd      8.11161     12.29662     14.01353        -0.002939     -0.001479     -0.000055
Pd     14.21821     14.15947      8.35808         0.000065     -0.003452      0.004778
Pd     11.72245     13.26870      8.80221         0.007839     -0.008014     -0.007107
Pd     14.09594     11.58503      9.02101        -0.016100      0.001963      0.003077
Pd      8.67816     13.97777     11.98587        -0.008000      0.007549      0.007206
Pd     12.22162     14.02164     13.91999         0.000174     -0.014563     -0.003579
Pd     11.39667     14.13477     11.28337         0.011184      0.003994      0.004038
Pd     13.99643     13.23204     12.09219        -0.003850      0.007451      0.009110
Pd     12.26115     11.47609     10.92991        -0.004626     -0.002907     -0.002511
Pd     12.99852     12.58400      6.60374        -0.008928     -0.001635      0.007325
Pd     13.95000      8.83812      7.58010        -0.002166     -0.001131      0.004953
Pd      6.96011      8.42940      8.39127         0.006130      0.006360      0.007144
Pd      5.54962     10.00752     10.07095         0.009332     -0.009447      0.001429
Pd      9.37899      9.44246      7.44353        -0.005538     -0.001807      0.006180
Pd      8.47322      6.94947      6.87428         0.005183     -0.008058     -0.004342
Pd      9.67001     11.94013     10.50967        -0.002877     -0.002001      0.008868
Pd     11.77166     10.59985      8.06832         0.007069      0.006777      0.008638
Pd     11.78957      8.93552      5.85411        -0.009234     -0.001121     -0.005317
Pd     10.60759     11.33315      5.73758        -0.010171     -0.004053      0.004893
Ir     10.71236      9.85989     12.70775        -0.005746      0.006274     -0.003075
Ir     13.12767      9.22182      9.95250        -0.008092     -0.008055      0.002658
Ir     10.46244     12.31535     12.88754         0.000628     -0.016241      0.016073
Ir      7.75887     10.94029      9.06916        -0.014505     -0.024854      0.013620
Ir      9.55040     12.04796      7.95454         0.006926      0.005380     -0.001515
Ir      8.00004      9.14634     10.74611        -0.020356      0.028644     -0.021875
