152
# total energy = -1024.45021987 eVH     10.35389      5.87395      7.64558         0.482892      0.025873      0.747625
H     10.62451     15.10445      7.64558         0.067138     -0.201324      0.624333
H     10.62451      5.87395     13.33282         0.103275      0.148823     -0.586608
H     10.35389     15.10445     13.33282        -0.509501     -0.025258     -0.755244
H      7.64558     10.35389      5.87395         0.350342      0.027271      0.162338
H      7.64558     10.62451     15.10445         0.961227     -0.237796      0.056998
H     13.33282     10.62451      5.87395        -0.801583     -0.133040      0.153048
H     13.33282     10.35389     15.10445        -0.904016     -0.450481      0.213574
H      5.87395      7.64558     10.35389         0.159638      0.724065     -0.305599
H     15.10445      7.64558     10.62451        -0.141672      0.381318     -0.015383
H      5.87395     13.33282     10.62451         0.155895     -0.502490     -0.099925
H     15.10445     13.33282     10.35389        -0.090886     -1.179266      0.113020
H      5.87395     10.35389      7.64558         0.138040      0.168707      0.506315
H     15.10445     10.62451      7.64558         0.006360      0.109172      1.021368
H      5.87395     10.62451     13.33282         0.069706     -0.038745     -0.469260
H     15.10445     10.35389     13.33282        -0.190985     -0.136759     -0.419523
H     10.35389      7.64558      5.87395         0.090416      0.999116      0.222044
H     10.62451      7.64558     15.10445         0.001593      0.270675     -0.156367
H     10.62451     13.33282      5.87395        -0.085455     -0.390481      0.318521
H     10.35389     13.33282     15.10445        -0.432244     -0.566507      0.003271
H      7.64558      5.87395     10.35389         0.544830      0.084292     -0.116511
H      7.64558     15.10445     10.62451         0.958144     -0.201044     -0.210478
H     13.33282      5.87395     10.62451        -0.588564      0.088549     -0.067295
H     13.33282     15.10445     10.35389        -0.578503     -0.065129      0.261671
H     12.45634     12.45634     19.01126         0.238066      0.276967     -0.237310
H     19.01126     19.01126     19.01126        -0.248085     -0.249262     -0.242671
H     19.01126     12.45634     12.45634        -0.267119      0.264816      0.219265
H     12.45634     19.01126     12.45634         0.236957     -0.267015      0.240344
C     10.35284      5.61067      6.59456        -0.221822     -0.678720      0.088679
C     10.62556     15.36773      6.59456        -0.050891      0.378141     -0.846103
C     10.62556      5.61067     14.38384        -0.006238     -0.057714      0.721337
C     10.35284     15.36773     14.38384         0.207676      0.694168      0.165798
C      6.59456     10.35284      5.61067        -0.362577     -0.014963     -0.306465
C      6.59456     10.62556     15.36773        -1.107567      0.261348      0.282854
C     14.38384     10.62556      5.61067         0.442046      0.374838     -0.677606
C     14.38384     10.35284     15.36773         1.109838      0.046110      0.212915
C      5.61067      6.59456     10.35284        -0.435823     -0.368194      0.356180
C     15.36773      6.59456     10.62556         0.188568     -0.495859      0.010074
C      5.61067     14.38384     10.62556        -0.205945      0.542616     -0.009985
C     15.36773     14.38384     10.35284         0.313739      0.041829     -0.113533
C      5.61067     10.35284      6.59456        -0.332988     -0.086200     -0.990092
C     15.36773     10.62556      6.59456         0.898144     -0.342448     -0.952368
C      5.61067     10.62556     14.38384        -0.438982      0.030308      0.299654
C     15.36773     10.35284     14.38384         0.646268     -0.097884      1.045165
C     10.35284      6.59456      5.61067        -0.251682     -0.561787     -0.942748
C     10.62556      6.59456     15.36773         0.062257     -0.256234      0.048628
C     10.62556     14.38384      5.61067         0.059648      1.198786     -0.415011
C     10.35284     14.38384     15.36773         0.276933      0.179825      0.725258
C      6.59456      5.61067     10.35284        -0.188886     -0.736777      0.171080
C      6.59456     15.36773     10.62556        -1.258167      0.244037      0.183157
C     14.38384      5.61067     10.62556         1.082867     -0.299178      0.040674
C     14.38384     15.36773     10.35284        -0.457779      0.783503     -0.405971
C     10.40319      3.19606      7.29314        -0.035797      0.917069     -0.427691
C     10.35913      4.25547      6.23373         0.056041     -0.535171      0.533616
C      0.08601      7.29314      7.29314        -0.020909     -0.393904     -0.347764
C      0.13007      6.23373      6.23373        -0.024352      0.014422      0.097729
C      0.08601      3.19606      3.19606         0.011256      1.274087      0.195739
C      0.13007      4.25547      4.25547        -0.046739     -0.225907     -0.202460
C     10.40319      7.29314      3.19606        -0.013822     -1.056592      0.373503
C     10.35913      6.23373      4.25547         0.042345      0.483174     -0.669636
C      7.29314     10.40319      3.19606        -0.317045      0.028971      0.726554
C      6.23373     10.35913      4.25547         0.139139      0.060021     -0.100903
C      7.29314      0.08601      7.29314        -0.661201     -0.017475     -0.267533
C      6.23373      0.13007      6.23373         0.377391     -0.080959      0.561835
C      3.19606      0.08601      3.19606         1.007908     -0.005328      0.256507
C      4.25547      0.13007      4.25547        -0.169832     -0.036615     -0.527111
C      3.19606     10.40319      7.29314         0.359913     -0.008686     -0.922932
C      4.25547     10.35913      6.23373        -0.272561      0.090678      0.233145
C      3.19606      7.29314     10.40319         0.523195     -1.362209     -0.037181
C      4.25547      6.23373     10.35913        -0.562177      0.726942      0.104065
C      7.29314      7.29314      0.08601        -0.389561     -0.239747      0.003077
C      6.23373      6.23373      0.13007         0.158258      0.153718     -0.002010
C      3.19606      3.19606      0.08601         0.267449      0.242709     -0.016923
C      4.25547      4.25547      0.13007        -0.123949     -0.051965      0.005091
C      7.29314      3.19606     10.40319        -0.397413      0.620854      0.006527
C      6.23373      4.25547     10.35913         1.065015     -0.145023      0.052879
O     10.43466      3.58206      8.50569        -0.023495      0.034587      0.438931
O     10.54374     17.39634      8.50569        -0.006053     -0.115831      0.467822
O     10.54374      3.58206     12.47271         0.040504     -0.106681     -0.129799
O     10.43466     17.39634     12.47271        -0.058208     -0.042611     -0.476967
O      8.50569     10.43466      3.58206         0.289010     -0.028408     -0.040080
O      8.50569     10.54374     17.39634         0.717436      0.028631     -0.204909
O     12.47271     10.54374      3.58206        -0.784524     -0.037876      0.147778
O     12.47271     10.43466     17.39634        -0.287985     -0.029998      0.032547
O      3.58206      8.50569     10.43466         0.160695      1.117999     -0.030095
O     17.39634      8.50569     10.54374        -0.100801      0.443214      0.059163
O      3.58206     12.47271     10.54374         0.067857     -0.396015      0.035310
O     17.39634     12.47271     10.43466        -0.157556     -0.670928     -0.010396
O      3.58206     10.43466      8.50569         0.068759     -0.067718      0.793526
O     17.39634     10.54374      8.50569        -0.062730      0.044233      0.330629
O      3.58206     10.54374     12.47271        -0.012306      0.037729     -0.239755
O     17.39634     10.43466     12.47271        -0.255416     -0.004153     -0.719572
O     10.43466      8.50569      3.58206         0.119138      0.837146      0.191928
O     10.54374      8.50569     17.39634         0.032754      0.597382     -0.141918
O     10.54374     12.47271      3.58206         0.006581     -1.010342      0.175953
O     10.43466     12.47271     17.39634        -0.043350     -0.954179     -0.214007
O      8.50569      3.58206     10.43466         0.566830      0.130884     -0.015902
O      8.50569     17.39634     10.54374         0.503048     -0.193168     -0.010650
O     12.47271      3.58206     10.54374        -0.480557      0.162861      0.059170
O     12.47271     17.39634     10.43466        -0.403935      0.034556     -0.008000
O     11.90042     11.90042     19.56718        -0.269743     -0.324859      0.257281
O     19.56718     19.56718     19.56718         0.277616      0.293600      0.283955
O     19.56718     11.90042     11.90042         0.301976     -0.300221     -0.202910
O     11.90042     19.56718     11.90042        -0.263157      0.285188     -0.249064
O      9.45224      1.03696      9.45224        -0.080104      0.049706     -0.059225
O      1.03696      9.45224      9.45224         0.043082     -0.152854     -0.113694
O      1.03696      1.03696      1.03696         0.025546      0.121008      0.195857
O      9.45224      9.45224      1.03696        -0.069227     -0.086631      0.117340
Zr     10.48920      2.52580     10.48920        -0.051352     -0.126262     -0.168108
Zr     10.48920     18.45260     10.48920         0.007656      0.214204     -0.026239
Zr     10.48920     10.48920      2.52580        -0.168414     -0.194157     -0.511982
Zr     10.48920     10.48920     18.45260         0.009075     -0.027817      0.434432
Zr      2.52580     10.48920     10.48920        -0.370411      0.309415      0.167581
Zr     18.45260     10.48920     10.48920         0.203755      0.067150     -0.202839
Pd      8.28077      9.65964     13.26951        -0.014881     -0.011587     -0.002788
Pd     10.47719      9.42564     10.19922         0.000728      0.016487     -0.003144
Pd     12.97226      8.78652     12.47801        -0.012479      0.017661     -0.006334
Pd     10.29872     10.83445     15.06809        -0.008741     -0.010891      0.005170
Pd     12.76249     11.37093     13.61307         0.003708     -0.013468      0.003748
Pd     14.84948     10.55987     11.35849        -0.005620     -0.015653      0.001107
Pd      6.90305      7.45080     12.30329        -0.013746      0.001612     -0.001402
Pd      9.20496      7.17563      9.46203        -0.011751     -0.004863      0.011857
Pd      9.59412      7.53712     12.22078        -0.006785     -0.004032      0.005744
Pd     11.75215      7.06676     10.79436         0.007290     -0.015572      0.016079
Pd     11.61077      7.82041      8.25637         0.006262     -0.002875     -0.012881
Pd      7.17937     11.65938     11.52509        -0.007721     -0.000460      0.001443
Pd      9.27436     14.31207      9.24290         0.006430     -0.011476      0.003018
Pd      8.11375     12.30082     14.01559         0.001672     -0.009570     -0.013054
Pd     14.22596     14.16184      8.35791        -0.006326      0.003566     -0.000000
Pd     11.72841     13.27132      8.79916        -0.018785      0.012805      0.014867
Pd     14.10032     11.58892      9.02091         0.001639     -0.004932      0.001628
Pd      8.68147     13.98113     11.98728         0.007206     -0.011822      0.004282
Pd     12.22259     14.01837     13.92082        -0.013726      0.007646      0.011868
Pd     11.40096     14.13687     11.28317        -0.010552     -0.012136      0.003489
Pd     13.99795     13.24283     12.09411         0.007737     -0.005287     -0.008577
Pd     12.26375     11.48136     10.92552        -0.006580     -0.010265      0.013560
Pd     13.00657     12.58541      6.60594        -0.003160     -0.001037     -0.020689
Pd     13.95247      8.83713      7.58159         0.001894     -0.004687     -0.014760
Pd      6.96083      8.43573      8.38606         0.007233     -0.005889      0.004139
Pd      5.55278     10.01044     10.07178         0.003238     -0.005073     -0.003999
Pd      9.38247      9.44521      7.44041         0.004247     -0.003199      0.006512
Pd      8.47099      6.95338      6.86215         0.000428      0.001724      0.019741
Pd      9.67297     11.94244     10.50866         0.000663      0.005110      0.020026
Pd     11.77990     10.60321      8.06906        -0.035366     -0.018883     -0.011346
Pd     11.79307      8.93541      5.85131        -0.008205     -0.006661      0.011112
Pd     10.61725     11.33337      5.73669        -0.017367      0.004406      0.009428
Ir     10.71929      9.85908     12.70410         0.010850     -0.001124      0.001682
Ir     13.13062      9.22373      9.95121         0.005124      0.011925      0.033455
Ir     10.46538     12.31302     12.88925        -0.010801      0.015905     -0.027473
Ir      7.76246     10.94300      9.06668        -0.014213     -0.005937      0.002885
Ir      9.55683     12.04894      7.95336         0.003064      0.001994      0.001045
Ir      8.00195      9.15008     10.74259        -0.011693      0.000092      0.004216
