152
# total energy = -1093.03292600 eVH     10.35389      5.87395      7.64558         0.201114     -0.109630      1.318380
H     10.62451     15.10445      7.64558        -0.226553      0.139870      1.497907
H     10.62451      5.87395     13.33282         0.193569     -0.072073     -1.197883
H     10.35389     15.10445     13.33282        -0.131619     -0.052822     -1.065670
H      7.64558     10.35389      5.87395         0.452537      0.018318     -0.046845
H      7.64558     10.62451     15.10445         0.423844      0.008938     -0.002191
H     13.33282     10.62451      5.87395        -0.653779     -0.034449      0.000048
H     13.33282     10.35389     15.10445        -0.440295      0.018401      0.003114
H      5.87395      7.64558     10.35389        -0.212767      1.367543      0.286677
H     15.10445      7.64558     10.62451        -0.012656      0.542833      0.043563
H      5.87395     13.33282     10.62451        -0.056104     -0.257520      0.029829
H     15.10445     13.33282     10.35389         0.232776     -1.615196      0.049986
H      5.87395     10.35389      7.64558        -0.088552     -0.593776      0.440946
H     15.10445     10.62451      7.64558         0.538533      0.861217     -0.054573
H      5.87395     10.62451     13.33282        -0.071165     -0.208661     -0.254150
H     15.10445     10.35389     13.33282        -0.090060      0.176239     -0.076599
H     10.35389      7.64558      5.87395        -0.245798      0.387922      0.061202
H     10.62451      7.64558     15.10445         0.070465      0.601757      0.201371
H     10.62451     13.33282      5.87395        -0.070509     -0.601519     -0.106722
H     10.35389     13.33282     15.10445        -0.154989     -0.463859      0.284712
H      7.64558      5.87395     10.35389         0.414808     -0.022183     -0.056959
H      7.64558     15.10445     10.62451         0.289686      0.026523     -0.044863
H     13.33282      5.87395     10.62451        -0.243749     -0.086437     -0.030532
H     13.33282     15.10445     10.35389        -0.510810      0.140815     -0.043157
H     12.45634     12.45634     19.01126         0.264741      0.246849     -0.243959
H     19.01126     19.01126     19.01126        -0.262140     -0.243869     -0.251742
H     19.01126     12.45634     12.45634        -0.260261      0.266821      0.232986
H     12.45634     19.01126     12.45634         0.273784     -0.255663      0.226283
C     10.35284      5.61067      6.59456        -0.260003     -0.243937     -1.687946
C     10.62556     15.36773      6.59456         0.444103      0.096683     -1.916050
C     10.62556      5.61067     14.38384        -0.297534     -0.113031      1.582502
C     10.35284     15.36773     14.38384         0.346205      0.102263      1.657720
C      6.59456     10.35284      5.61067        -0.797443     -0.089101     -0.297500
C      6.59456     10.62556     15.36773        -0.838939     -0.023517      0.077626
C     14.38384     10.62556      5.61067         1.026934      0.033347     -0.230841
C     14.38384     10.35284     15.36773         0.807547      0.002011      0.182390
C      5.61067      6.59456     10.35284        -0.079297     -1.624266     -0.059855
C     15.36773      6.59456     10.62556         0.226214     -0.986522      0.035630
C      5.61067     14.38384     10.62556        -0.352659      0.733750      0.033944
C     15.36773     14.38384     10.35284         0.042801      1.791229     -0.025498
C      5.61067     10.35284      6.59456        -0.719575      0.196848     -1.762838
C     15.36773     10.62556      6.59456         0.768255     -0.206738     -2.032167
C      5.61067     10.62556     14.38384        -0.657353      0.107580      1.741730
C     15.36773     10.35284     14.38384         0.619671     -0.081704      1.434794
C     10.35284      6.59456      5.61067         0.063747     -1.504097     -0.813584
C     10.62556      6.59456     15.36773        -0.029922     -1.777666      0.791334
C     10.62556     14.38384      5.61067         0.074749      1.664034     -0.873205
C     10.35284     14.38384     15.36773         0.019162      1.917549      0.701397
C      6.59456      5.61067     10.35284        -0.669413     -0.861798     -0.014400
C      6.59456     15.36773     10.62556        -1.078526      0.588784      0.069328
C     14.38384      5.61067     10.62556         1.114316     -0.787107      0.101282
C     14.38384     15.36773     10.35284         0.877771      0.969966      0.012847
C     10.40319      3.19606      7.29314         0.005787      0.531778     -0.518918
C     10.35913      4.25547      6.23373        -0.019236     -0.850149      0.488520
C      0.08601      7.29314      7.29314         0.024989     -0.510460     -0.576912
C      0.13007      6.23373      6.23373         0.025748      0.909894      0.482186
C      0.08601      3.19606      3.19606         0.021442      0.669737      0.398218
C      0.13007      4.25547      4.25547        -0.036386     -0.733573     -0.462361
C     10.40319      7.29314      3.19606         0.001922     -0.708493      0.500805
C     10.35913      6.23373      4.25547         0.041510      0.607699     -0.473450
C      7.29314     10.40319      3.19606        -0.312974     -0.011441      0.619572
C      6.23373     10.35913      4.25547         0.173493     -0.079756     -0.194844
C      7.29314      0.08601      7.29314        -0.226576     -0.028871     -0.403457
C      6.23373      0.13007      6.23373         0.148757     -0.095967      0.384120
C      3.19606      0.08601      3.19606         0.396316      0.012554      0.426146
C      4.25547      0.13007      4.25547        -0.194161      0.068471     -0.237875
C      3.19606     10.40319      7.29314         0.279859      0.018190     -0.472776
C      4.25547     10.35913      6.23373        -0.154509      0.100730      0.409664
C      3.19606      7.29314     10.40319         0.197357     -0.323172     -0.006992
C      4.25547      6.23373     10.35913        -0.595355      0.227697      0.049220
C      7.29314      7.29314      0.08601        -0.584324     -0.446909      0.006105
C      6.23373      6.23373      0.13007         0.110198      0.236206     -0.062568
C      3.19606      3.19606      0.08601         0.555018      0.398038     -0.001064
C      4.25547      4.25547      0.13007        -0.062848     -0.102274     -0.025918
C      7.29314      3.19606     10.40319        -0.210447      0.387214     -0.000486
C      6.23373      4.25547     10.35913         0.645434     -0.254762      0.038107
O     10.43466      3.58206      8.50569         0.012368      0.228194      0.471896
O     10.54374     17.39634      8.50569        -0.028128     -0.221978      0.494354
O     10.54374      3.58206     12.47271         0.072052      0.150064     -0.354233
O     10.43466     17.39634     12.47271        -0.114769     -0.156188     -0.379237
O      8.50569     10.43466      3.58206         0.386705     -0.020126      0.055160
O      8.50569     10.54374     17.39634         0.441366      0.055680     -0.118497
O     12.47271     10.54374      3.58206        -0.504011     -0.008388      0.120374
O     12.47271     10.43466     17.39634        -0.456303     -0.055284     -0.124620
O      3.58206      8.50569     10.43466         0.170309      0.427458     -0.046198
O     17.39634      8.50569     10.54374        -0.077281      0.545445      0.042384
O      3.58206     12.47271     10.54374         0.047549     -0.505135      0.043074
O     17.39634     12.47271     10.43466        -0.180641     -0.474122     -0.018039
O      3.58206     10.43466      8.50569         0.169851     -0.016636      0.475126
O     17.39634     10.54374      8.50569        -0.126334     -0.008497      0.455447
O      3.58206     10.54374     12.47271         0.173526      0.082076     -0.436291
O     17.39634     10.43466     12.47271        -0.208694     -0.068699     -0.587223
O     10.43466      8.50569      3.58206         0.052679      0.606904      0.262379
O     10.54374      8.50569     17.39634         0.059698      0.539086     -0.229812
O     10.54374     12.47271      3.58206        -0.009375     -0.663726      0.276609
O     10.43466     12.47271     17.39634        -0.035339     -0.534301     -0.236324
O      8.50569      3.58206     10.43466         0.510847      0.146898     -0.029977
O      8.50569     17.39634     10.54374         0.612402     -0.098743      0.054528
O     12.47271      3.58206     10.54374        -0.629639      0.125990      0.019305
O     12.47271     17.39634     10.43466        -0.504139     -0.141617     -0.013658
O     11.90042     11.90042     19.56718        -0.310764     -0.287954      0.268534
O     19.56718     19.56718     19.56718         0.309204      0.272432      0.288137
O     19.56718     11.90042     11.90042         0.309451     -0.319235     -0.237016
O     11.90042     19.56718     11.90042        -0.332595      0.282358     -0.225363
O      9.45224      1.03696      9.45224        -0.044792      0.049647     -0.068240
O      1.03696      9.45224      9.45224         0.027237     -0.080720     -0.062262
O      1.03696      1.03696      1.03696         0.028261      0.044341      0.132755
O      9.45224      9.45224      1.03696        -0.037329     -0.083601      0.132924
Zr     10.48920      2.52580     10.48920        -0.098191     -0.106414      0.001555
Zr     10.48920     18.45260     10.48920         0.135596      0.185136     -0.111879
Zr     10.48920     10.48920      2.52580         0.010330      0.100215     -0.322545
Zr     10.48920     10.48920     18.45260        -0.022615     -0.006244      0.159075
Zr      2.52580     10.48920     10.48920        -0.026893     -0.024053     -0.057913
Zr     18.45260     10.48920     10.48920         0.128706      0.108884     -0.165426
Pd     13.04628      8.08548      7.66960         0.027478      0.064964      0.024446
Pd      9.53575     14.60472     11.73103         0.002556      0.020907      0.018024
Pd     12.35351     10.95366     10.44541         0.012536     -0.049823      0.037744
Pd     14.73474     10.14253     11.56497        -0.037077     -0.033774      0.030442
Pd     11.05638      9.26943      6.19149        -0.085454      0.019627      0.033829
Pd      6.91721      8.44757      9.02920         0.101852      0.067114     -0.193123
Ir     10.27150     11.89021     11.77319        -0.034106     -0.041750     -0.061205
Ir     12.98230      8.36137     10.34608         0.065608     -0.029412     -0.007526
Ir     12.29683     11.01686      7.73256        -0.006603     -0.014853      0.009583
Ir      9.66029     14.37329      9.13554        -0.132955     -0.113101     -0.024474
Ir     10.86483      9.24231     11.76452        -0.053861     -0.025104     -0.168090
Ir      8.69392      9.98983      7.80999         0.143247      0.175074     -0.022269
Ir     13.85344     12.56005      9.01728        -0.001468      0.074933      0.062843
Ir     11.94440     13.60409      7.80623         0.058984     -0.074445     -0.013755
Ir     14.33421      9.97143      9.03415        -0.087313      0.033087      0.032735
Ir      9.33158      7.41580     10.43632        -0.083193      0.024637      0.072299
Ir      8.13969     12.65073      7.83244        -0.013614      0.112302      0.046067
Ir      9.17468      7.54429      7.89421         0.151593      0.024468     -0.059551
Ir     11.84503     13.61293     13.01640         0.046242     -0.113608      0.029368
Ir     11.54938      6.76713     11.77006        -0.162210     -0.126717     -0.049482
Ir     10.23932     11.80041      9.09089        -0.057966     -0.014535     -0.008382
Ir     12.98397      8.42573     13.02685         0.074764     -0.041530     -0.005886
Ir     10.86624      9.15519      9.01412        -0.037649      0.044594     -0.066913
Ir     11.77412     13.61971     10.40167        -0.018309      0.009436     -0.043036
Ir     13.82957     12.72270     11.80333        -0.059453     -0.023632     -0.024966
Ir     12.40907     11.08379     13.12196        -0.069906      0.021657     -0.112475
Ir     10.10755     11.64731      6.50094         0.093233      0.013698     -0.034144
Ir     11.43052      6.61249      9.23093        -0.140795     -0.056475      0.105707
Ir      7.28019      8.31373     11.80130        -0.110681      0.031328      0.130065
Ir      8.18178     12.70421     10.42665         0.020090     -0.024776     -0.017844
Ir     10.94483      9.32123     14.31859        -0.037800     -0.046392     -0.022629
Ir      8.08669     12.54786     12.97862        -0.012642      0.034807      0.118484
Ir      6.58746     11.15012      9.15513        -0.040072      0.028334     -0.127460
Ir      8.67485     10.05056     13.07685         0.142675      0.028733      0.131693
Ir      6.60856     10.86911     11.59302         0.009790      0.011988     -0.065853
Ir      9.24643      7.49619     13.06703        -0.109112     -0.101407      0.094478
Ir     10.20100     11.69296     14.35807        -0.079885     -0.110314      0.022580
Ir      8.74718     10.03088     10.43788         0.105300      0.017486     -0.075035
