152
# total energy = -1004.03102714 eVH     10.35389      5.87395      7.64558        -0.267157      0.247426      0.581675
H     10.62451     15.10445      7.64558        -0.310081     -0.131495      0.736501
H     10.62451      5.87395     13.33282         0.459842      0.033603     -0.922374
H     10.35389     15.10445     13.33282         0.058973     -0.181129     -0.485586
H      7.64558     10.35389      5.87395         0.472678      0.062643      0.060113
H      7.64558     10.62451     15.10445         0.743580      0.580818     -0.074265
H     13.33282     10.62451      5.87395        -0.460689     -0.180649      0.331006
H     13.33282     10.35389     15.10445        -0.692705     -0.122212     -0.027871
H      5.87395      7.64558     10.35389         0.093101      1.534503      0.092654
H     15.10445      7.64558     10.62451        -0.071376      0.560888      0.062834
H      5.87395     13.33282     10.62451         0.203339     -0.773243      0.093807
H     15.10445     13.33282     10.35389         0.111966     -1.285438     -0.080650
H      5.87395     10.35389      7.64558         0.063409      0.096669      0.618868
H     15.10445     10.62451      7.64558        -0.181550      0.816380      1.325085
H      5.87395     10.62451     13.33282        -0.054847      0.471465     -1.432083
H     15.10445     10.35389     13.33282         0.329066     -0.065586     -0.935408
H     10.35389      7.64558      5.87395         0.275736      1.446460      0.163106
H     10.62451      7.64558     15.10445         0.586749      0.974409     -0.041661
H     10.62451     13.33282      5.87395        -0.591499     -0.768609      0.192195
H     10.35389     13.33282     15.10445        -0.067638     -0.469907     -0.238410
H      7.64558      5.87395     10.35389         1.187742     -0.275611     -0.357697
H      7.64558     15.10445     10.62451         0.700018     -0.198227     -0.001113
H     13.33282      5.87395     10.62451        -0.729960      0.089867      0.540549
H     13.33282     15.10445     10.35389        -0.312709     -0.074026     -0.063218
H     12.45634     12.45634     19.01126         0.267471      0.244061     -0.237835
H     19.01126     19.01126     19.01126        -0.263945     -0.272906     -0.216764
H     19.01126     12.45634     12.45634        -0.269556      0.255869      0.234680
H     12.45634     19.01126     12.45634         0.258541     -0.278506      0.227803
C     10.35284      5.61067      6.59456        -0.094169     -0.846200     -0.722267
C     10.62556     15.36773      6.59456         0.166153      0.357728     -0.257725
C     10.62556      5.61067     14.38384        -0.099273     -0.715538      0.608726
C     10.35284     15.36773     14.38384        -0.005211      0.234485      0.494999
C      6.59456     10.35284      5.61067        -0.731119      0.077055     -0.490035
C      6.59456     10.62556     15.36773        -0.875363      0.208918      0.818273
C     14.38384     10.62556      5.61067         0.988523      0.045635     -0.985520
C     14.38384     10.35284     15.36773         1.058853     -0.044975      0.629260
C      5.61067      6.59456     10.35284        -0.770181     -0.688902     -0.464293
C     15.36773      6.59456     10.62556         0.738952      0.048678     -0.168954
C      5.61067     14.38384     10.62556        -0.280230      0.943626     -0.045474
C     15.36773     14.38384     10.35284         0.374285      1.424991     -0.194666
C      5.61067     10.35284      6.59456        -0.325779     -0.024565     -0.755275
C     15.36773     10.62556      6.59456         0.378444     -0.386010     -0.940733
C      5.61067     10.62556     14.38384        -0.376207     -0.079798      1.170420
C     15.36773     10.35284     14.38384         0.248132      0.017351      1.160697
C     10.35284      6.59456      5.61067         0.002443     -1.125524     -0.321751
C     10.62556      6.59456     15.36773        -0.025750     -0.860754      0.665007
C     10.62556     14.38384      5.61067         0.079839      0.925430     -0.528823
C     10.35284     14.38384     15.36773        -0.023403      0.574911      0.317661
C      6.59456      5.61067     10.35284        -0.737515     -1.145725      0.155292
C      6.59456     15.36773     10.62556        -0.753523      0.183312      0.065819
C     14.38384      5.61067     10.62556        -0.019209     -0.526191     -0.312091
C     14.38384     15.36773     10.35284         0.046237      0.573681     -0.044514
C     10.40319      3.19606      7.29314        -0.001234      0.468018     -0.839004
C     10.35913      4.25547      6.23373        -0.018301     -0.480259      0.111547
C      0.08601      7.29314      7.29314        -0.039754     -0.974950     -0.269078
C      0.13007      6.23373      6.23373        -0.022904      0.408354      0.505523
C      0.08601      3.19606      3.19606         0.028731      1.102386      0.232167
C      0.13007      4.25547      4.25547        -0.000022     -0.446627     -0.405380
C     10.40319      7.29314      3.19606        -0.020405     -0.632904      0.194941
C     10.35913      6.23373      4.25547        -0.044951      0.132128     -0.674959
C      7.29314     10.40319      3.19606        -0.392600      0.016051      0.221082
C      6.23373     10.35913      4.25547         0.202841      0.035109     -0.169868
C      7.29314      0.08601      7.29314        -1.157051     -0.077889     -0.401491
C      6.23373      0.13007      6.23373         0.646987     -0.191440      0.341622
C      3.19606      0.08601      3.19606         1.143628     -0.027848      0.259670
C      4.25547      0.13007      4.25547        -0.612734     -0.116073     -0.225228
C      3.19606     10.40319      7.29314         0.491956      0.028336     -0.253123
C      4.25547     10.35913      6.23373        -0.243922      0.029172      0.152077
C      3.19606      7.29314     10.40319         0.268087     -0.502591      0.056968
C      4.25547      6.23373     10.35913        -0.878176     -0.048391      0.145178
C      7.29314      7.29314      0.08601        -0.450045     -0.423496     -0.021033
C      6.23373      6.23373      0.13007         0.501631      0.270567      0.073650
C      3.19606      3.19606      0.08601         0.618616      0.466126     -0.019664
C      4.25547      4.25547      0.13007        -0.132543     -0.843583     -0.070523
C      7.29314      3.19606     10.40319        -0.343447      0.434834      0.050358
C      6.23373      4.25547     10.35913         0.511178     -0.670922      0.169337
O     10.43466      3.58206      8.50569         0.056347      0.256104      0.746245
O     10.54374     17.39634      8.50569         0.052620     -0.047116      0.330596
O     10.54374      3.58206     12.47271         0.004787     -0.022837     -0.270609
O     10.43466     17.39634     12.47271        -0.030413     -0.089096     -0.352387
O      8.50569     10.43466      3.58206         0.562437     -0.043457      0.156052
O      8.50569     10.54374     17.39634         0.876327     -0.085165     -0.189614
O     12.47271     10.54374      3.58206        -0.864278      0.150862      0.147888
O     12.47271     10.43466     17.39634        -0.570317      0.029413     -0.195489
O      3.58206      8.50569     10.43466         0.187409      0.612648     -0.047629
O     17.39634      8.50569     10.54374        -0.150153      0.607031      0.023905
O      3.58206     12.47271     10.54374         0.123561     -0.560762      0.042307
O     17.39634     12.47271     10.43466        -0.179751     -0.553729     -0.054205
O      3.58206     10.43466      8.50569         0.108961     -0.039901      0.378835
O     17.39634     10.54374      8.50569         0.050478      0.101513      0.327250
O      3.58206     10.54374     12.47271        -0.008297      0.033509     -0.247743
O     17.39634     10.43466     12.47271        -0.122622     -0.029399     -0.388747
O     10.43466      8.50569      3.58206        -0.045661      0.670767      0.188443
O     10.54374      8.50569     17.39634        -0.080912      0.788468     -0.155401
O     10.54374     12.47271      3.58206         0.147421     -0.909077      0.201283
O     10.43466     12.47271     17.39634        -0.009152     -0.386642     -0.030342
O      8.50569      3.58206     10.43466         0.543405      0.143836     -0.050355
O      8.50569     17.39634     10.54374         0.575991     -0.170623      0.017746
O     12.47271      3.58206     10.54374        -0.703927      0.124942      0.026164
O     12.47271     17.39634     10.43466        -0.508777     -0.130972     -0.032412
O     11.90042     11.90042     19.56718        -0.315861     -0.267853      0.252932
O     19.56718     19.56718     19.56718         0.293099      0.326504      0.215636
O     19.56718     11.90042     11.90042         0.341605     -0.285902     -0.248670
O     11.90042     19.56718     11.90042        -0.286953      0.349058     -0.220456
O      9.45224      1.03696      9.45224        -0.041336      0.100144     -0.114759
O      1.03696      9.45224      9.45224         0.068473     -0.024560     -0.103624
O      1.03696      1.03696      1.03696         0.054948      0.083410      0.110834
O      9.45224      9.45224      1.03696        -0.032553     -0.020125      0.104874
Zr     10.48920      2.52580     10.48920        -0.095174     -0.234137      0.171174
Zr     10.48920     18.45260     10.48920         0.028328      0.054682      0.052658
Zr     10.48920     10.48920      2.52580        -0.278973     -0.187640     -0.413226
Zr     10.48920     10.48920     18.45260         0.172963      0.023082      0.312957
Zr      2.52580     10.48920     10.48920        -0.128324     -0.066056     -0.058346
Zr     18.45260     10.48920     10.48920         0.101442     -0.045898      0.116675
Pd     12.59890      8.21824      9.77234        -0.022208      0.134227      0.006170
Pd      6.93679      9.60238     10.50036        -0.018943     -0.018101      0.031382
Pd      6.88736     11.76976     11.97948         0.001817     -0.009972     -0.053168
Pd     12.26699     13.59464      7.34881        -0.007789      0.009284     -0.000247
Pd     12.10756      7.92288      7.08987        -0.103485      0.014439      0.078182
Pd      8.61708      7.43970      7.00150        -0.134703      0.021156     -0.032200
Pd     11.65047     11.56570      5.72238        -0.063810     -0.030642     -0.088157
Pd     14.46448      8.86370      7.86620         0.036727     -0.065861     -0.066852
Pd      9.92247     11.83737      7.82211        -0.012009     -0.022859     -0.051317
Pd      7.16002      7.08939     11.98362        -0.065296      0.070173      0.042555
Pd      6.47388      7.86602      8.46870         0.003880     -0.099097      0.019693
Pd      7.23779      9.20240     13.48124         0.101324     -0.007313     -0.004793
Pd     11.29566      6.04058      9.22191         0.026060     -0.068148      0.000131
Pd     10.04604      9.62700      6.25945        -0.057207      0.042235      0.015556
Pd      9.08865     13.87022      9.31570         0.019316      0.033290     -0.030572
Pd     10.85256      7.02639     11.57634         0.048877     -0.072402     -0.006305
Pd     10.32871      9.13698      8.91674        -0.004699     -0.026528     -0.012228
Pd      9.24126     11.38490     10.40956        -0.096236      0.129477     -0.013608
Pd      8.84622      7.22734      9.68567        -0.001650     -0.094871      0.089416
Pd      8.97801      7.22101     13.83211        -0.031763     -0.025116      0.058122
Pd      9.19945      9.02729     11.64347         0.016097      0.098645     -0.009738
Pd     12.37898     10.65051      8.14524        -0.021575     -0.100208      0.015240
Pd      6.94886     12.07707      9.27758         0.013532      0.003084     -0.034932
Pd      8.07542      9.97165      8.10780        -0.089558     -0.010076      0.010205
Pd     13.93166      6.34229      8.50434         0.087170     -0.070598     -0.085020
Pd     13.36400      7.84864     12.23107        -0.085205      0.127518      0.068322
Pd      9.17793     11.24506     13.18826         0.017508     -0.070887      0.019111
Pd     14.15939     12.48919      8.77733        -0.027841     -0.002423     -0.049381
Pd     13.26907     10.49746     12.84560        -0.084106      0.118759     -0.083156
Pd     14.24773     10.21023     10.27304        -0.038241     -0.040874     -0.007236
Pd     11.55434     10.33028     10.95439         0.145899     -0.005582      0.035477
Pd     11.52475     12.88593      9.76491        -0.018919      0.042730      0.119480
Pd     13.67743     12.61417     11.43131        -0.014176      0.082786      0.064958
Pd     11.25760     12.62626     12.33960         0.061600     -0.044560     -0.001304
Pd     11.46107     11.34392     14.65775        -0.071075      0.061191      0.047933
Pd     11.19088      8.96535     13.37711        -0.014640      0.178792     -0.031968
Pd      9.47480      9.61851     15.27291        -0.013810     -0.062092      0.017196
Pd      8.85687     13.62023     11.95967         0.062972      0.062152      0.007867
