37
# total energy = -244.53975109 eVH      6.49490     11.07193      7.49840        -0.000000     -0.002518      0.000000
H      6.49490      1.91787      7.49840        -0.000000      0.002518      0.000000
H      1.91787      6.49490      7.49840         0.002518     -0.000000      0.000000
H     11.07193      6.49490      7.49840        -0.002518     -0.000000      0.000000
C      6.49490      9.98466      7.49840        -0.000000     -0.008330      0.000000
C      6.49490      3.00514      7.49840        -0.000000      0.008330      0.000000
C      3.00514      6.49490      7.49840         0.008330     -0.000000      0.000000
C      9.98466      6.49490      7.49840        -0.008330     -0.000000     -0.000000
C      3.52789      7.81254      7.49840        -0.008907      0.001748     -0.000000
C      9.46191      5.17726      7.49840         0.008907     -0.001748      0.000000
C      5.17726      3.52789      7.49840        -0.001748     -0.008907      0.000000
C      7.81254      9.46191      7.49840         0.001748      0.008907     -0.000000
C      9.46191      7.81254      7.49840         0.008907      0.001748     -0.000000
C      3.52789      5.17726      7.49840        -0.008907     -0.001748     -0.000000
C      7.81254      3.52789      7.49840         0.001748     -0.008907      0.000000
C      5.17726      9.46191      7.49840        -0.001748      0.008907      0.000000
C     12.25567      0.73413      7.49840        -0.000445      0.000445      0.000000
C      0.73413     12.25567      7.49840         0.000445     -0.000445     -0.000000
C     12.25567     12.25567      7.49840        -0.000445     -0.000445      0.000000
C      0.73413      0.73413      7.49840         0.000445      0.000445      0.000000
N      4.88361      8.10619      7.49840        -0.003932      0.003932      0.000000
N      8.10619      4.88361      7.49840         0.003932     -0.003932      0.000000
N      4.88361      4.88361      7.49840        -0.003932     -0.003932      0.000000
N      8.10619      8.10619      7.49840         0.003932      0.003932      0.000000
O      8.67741     10.40140      7.49840        -0.001402      0.011101      0.000000
O      4.31239      2.58840      7.49840         0.001402     -0.011101      0.000000
O      2.58840      8.67741      7.49840        -0.011101     -0.001402     -0.000000
O     10.40140      4.31239      7.49840         0.011101      0.001402      0.000000
O      4.31239     10.40140      7.49840         0.001402      0.011101     -0.000000
O      8.67741      2.58840      7.49840        -0.001402     -0.011101     -0.000000
O     10.40140      8.67741      7.49840         0.011101     -0.001402      0.000000
O      2.58840      4.31239      7.49840        -0.011101      0.001402     -0.000000
Au     10.89356      2.09624      7.49840         0.009902     -0.009902      0.000000
Au      2.09624     10.89356      7.49840        -0.009902      0.009902      0.000000
Au     10.89356     10.89356      7.49840         0.009902      0.009902      0.000000
Au      2.09624      2.09624      7.49840        -0.009902     -0.009902      0.000000
Au      6.49490      6.49490      7.49840        -0.000000     -0.000000      0.000000
