152
# total energy = -1060.01452898 eVH     10.35389      5.87395      7.64558        -0.263438      0.002579      1.144582
H     10.62451     15.10445      7.64558         0.045009     -0.089846      0.924678
H     10.62451      5.87395     13.33282        -0.239224      0.088569     -0.787731
H     10.35389     15.10445     13.33282         0.098927     -0.297046     -0.897925
H      7.64558     10.35389      5.87395         0.931864     -0.113331      0.181465
H      7.64558     10.62451     15.10445         0.335770     -0.043423     -0.077241
H     13.33282     10.62451      5.87395        -0.872747      0.213750      0.203041
H     13.33282     10.35389     15.10445        -0.277705     -0.011212     -0.069025
H      5.87395      7.64558     10.35389         0.088784      0.415305     -0.014832
H     15.10445      7.64558     10.62451         0.012677      0.509805     -0.033300
H      5.87395     13.33282     10.62451        -0.017907     -0.960307      0.076331
H     15.10445     13.33282     10.35389        -0.078399     -0.320070      0.003831
H      5.87395     10.35389      7.64558         0.270415      0.119245      0.417121
H     15.10445     10.62451      7.64558        -0.125176     -0.175517      0.651228
H      5.87395     10.62451     13.33282        -0.090879      0.459170     -0.618030
H     15.10445     10.35389     13.33282         0.263500     -0.650505     -0.812555
H     10.35389      7.64558      5.87395        -0.047224      0.480467      0.330082
H     10.62451      7.64558     15.10445         0.217376      0.747222     -0.047323
H     10.62451     13.33282      5.87395         0.122665     -0.562237      0.204323
H     10.35389     13.33282     15.10445         0.042971     -0.286096     -0.135404
H      7.64558      5.87395     10.35389         0.338519      0.092557      0.015232
H      7.64558     15.10445     10.62451         0.370127     -0.113489      0.155736
H     13.33282      5.87395     10.62451        -0.317999      0.127675     -0.037219
H     13.33282     15.10445     10.35389        -0.652760     -0.133393      0.144251
H     12.45634     12.45634     19.01126         0.254752      0.270845     -0.229738
H     19.01126     19.01126     19.01126        -0.245815     -0.268444     -0.245532
H     19.01126     12.45634     12.45634        -0.251753      0.269367      0.234847
H     12.45634     19.01126     12.45634         0.290587     -0.235911      0.233820
C     10.35284      5.61067      6.59456         0.394926     -0.428078     -1.459834
C     10.62556     15.36773      6.59456        -0.159329      0.570581     -0.628169
C     10.62556      5.61067     14.38384         0.386888     -0.346166      0.844908
C     10.35284     15.36773     14.38384        -0.235348      0.222573      1.109571
C      6.59456     10.35284      5.61067        -1.376188      0.019048     -0.245855
C      6.59456     10.62556     15.36773        -0.651941      0.059484      0.383372
C     14.38384     10.62556      5.61067         1.307984     -0.174577     -0.621533
C     14.38384     10.35284     15.36773         0.377150     -0.121708      0.357320
C      5.61067      6.59456     10.35284        -0.296267     -0.624102     -0.012289
C     15.36773      6.59456     10.62556         0.421380     -0.999532      0.030788
C      5.61067     14.38384     10.62556        -0.123502      1.160612     -0.180139
C     15.36773     14.38384     10.35284         0.456015      0.646466     -0.025643
C      5.61067     10.35284      6.59456        -0.365121     -0.100816     -0.709122
C     15.36773     10.62556      6.59456         0.420382      0.121925     -0.749659
C      5.61067     10.62556     14.38384        -0.383074     -0.174141      1.225637
C     15.36773     10.35284     14.38384         0.283186      0.192304      1.510696
C     10.35284      6.59456      5.61067        -0.050084     -0.709437     -0.630583
C     10.62556      6.59456     15.36773        -0.090302     -0.825313      0.345222
C     10.62556     14.38384      5.61067        -0.456473      0.418094     -0.697956
C     10.35284     14.38384     15.36773        -0.152131      0.589476      0.411656
C      6.59456      5.61067     10.35284        -0.502251     -0.340205      0.040445
C      6.59456     15.36773     10.62556        -0.397212      0.466887      0.049820
C     14.38384      5.61067     10.62556         0.448655     -0.386164      0.004758
C     14.38384     15.36773     10.35284         1.121293      0.504002     -0.071436
C     10.40319      3.19606      7.29314         0.001814      0.640871     -0.336944
C     10.35913      4.25547      6.23373         0.003504     -0.445573      0.290535
C      0.08601      7.29314      7.29314        -0.013238     -0.355635     -0.496239
C      0.13007      6.23373      6.23373        -0.079218      0.826745      0.060082
C      0.08601      3.19606      3.19606        -0.001602      0.670233      0.269835
C      0.13007      4.25547      4.25547         0.022939     -0.269039     -0.523674
C     10.40319      7.29314      3.19606        -0.067497     -1.159774      0.552915
C     10.35913      6.23373      4.25547        -0.037798      0.374112     -0.195984
C      7.29314     10.40319      3.19606        -1.085852     -0.058342      0.184748
C      6.23373     10.35913      4.25547         0.363942      0.081120     -0.538649
C      7.29314      0.08601      7.29314        -0.410506      0.034219     -0.562517
C      6.23373      0.13007      6.23373         0.177930      0.132886      0.130876
C      3.19606      0.08601      3.19606         0.699379      0.024717      0.163683
C      4.25547      0.13007      4.25547        -0.169336     -0.052770     -0.368089
C      3.19606     10.40319      7.29314         0.385693     -0.024572     -0.866243
C      4.25547     10.35913      6.23373        -0.163348     -0.084636      0.095423
C      3.19606      7.29314     10.40319         0.599564     -0.385685      0.001316
C      4.25547      6.23373     10.35913        -0.118324      0.181451     -0.000401
C      7.29314      7.29314      0.08601        -0.402510     -0.327362     -0.015305
C      6.23373      6.23373      0.13007         0.198772      0.193261     -0.057128
C      3.19606      3.19606      0.08601         0.290653      0.480026     -0.023447
C      4.25547      4.25547      0.13007        -0.397192     -0.226584     -0.029914
C      7.29314      3.19606     10.40319        -0.282018      0.588616     -0.013636
C      6.23373      4.25547     10.35913         0.003312     -0.125346      0.021954
O     10.43466      3.58206      8.50569        -0.030195      0.103299      0.329574
O     10.54374     17.39634      8.50569         0.066448     -0.134328      0.591214
O     10.54374      3.58206     12.47271         0.026922      0.108218     -0.390439
O     10.43466     17.39634     12.47271         0.088489     -0.044606     -0.364427
O      8.50569     10.43466      3.58206         0.713716     -0.059644      0.012429
O      8.50569     10.54374     17.39634         0.451244      0.054799     -0.070491
O     12.47271     10.54374      3.58206        -0.652718      0.113841      0.204227
O     12.47271     10.43466     17.39634        -0.288374     -0.004700      0.012162
O      3.58206      8.50569     10.43466         0.045115      0.461830     -0.065953
O     17.39634      8.50569     10.54374        -0.062048      0.462421      0.054870
O      3.58206     12.47271     10.54374         0.113663     -0.584411      0.002628
O     17.39634     12.47271     10.43466        -0.167774     -0.736682     -0.061546
O      3.58206     10.43466      8.50569         0.217082     -0.063392      0.777598
O     17.39634     10.54374      8.50569        -0.116828      0.077525      0.597454
O      3.58206     10.54374     12.47271        -0.000155     -0.000862     -0.270060
O     17.39634     10.43466     12.47271         0.043040     -0.013394     -0.211694
O     10.43466      8.50569      3.58206        -0.103776      0.575817     -0.117342
O     10.54374      8.50569     17.39634         0.064492      0.502772     -0.100041
O     10.54374     12.47271      3.58206         0.104969     -0.622096      0.133861
O     10.43466     12.47271     17.39634        -0.061074     -0.628985     -0.239643
O      8.50569      3.58206     10.43466         0.399329      0.029564     -0.031894
O      8.50569     17.39634     10.54374         0.627305     -0.152328      0.050349
O     12.47271      3.58206     10.54374        -0.508211      0.126612      0.037325
O     12.47271     17.39634     10.43466        -0.621912     -0.139680      0.035893
O     11.90042     11.90042     19.56718        -0.274481     -0.308280      0.236961
O     19.56718     19.56718     19.56718         0.301709      0.319015      0.299481
O     19.56718     11.90042     11.90042         0.285222     -0.324689     -0.230664
O     11.90042     19.56718     11.90042        -0.317916      0.230383     -0.201913
O      9.45224      1.03696      9.45224        -0.085174      0.082922     -0.066549
O      1.03696      9.45224      9.45224         0.099135     -0.116777     -0.044455
O      1.03696      1.03696      1.03696         0.082385      0.055824      0.099523
O      9.45224      9.45224      1.03696        -0.060368     -0.131284      0.130555
Zr     10.48920      2.52580     10.48920         0.032180     -0.087381      0.064645
Zr     10.48920     18.45260     10.48920        -0.169575      0.263306     -0.343994
Zr     10.48920     10.48920      2.52580         0.123419      0.356301     -0.355808
Zr     10.48920     10.48920     18.45260        -0.080257     -0.191901      0.171414
Zr      2.52580     10.48920     10.48920        -0.252999      0.123931      0.219653
Zr     18.45260     10.48920     10.48920         0.231342     -0.110420      0.007339
Pd      9.38632     14.21672      9.39430         0.009810      0.055815     -0.029359
Pd      8.63263     13.71607     12.97975        -0.005855     -0.011127      0.001391
Pd     12.01510     14.41393      8.75638         0.021449      0.005081     -0.011311
Pd     12.78544     12.79682     10.60777        -0.021652      0.036506      0.019508
Pd     12.16819      7.09918     12.60252        -0.028421      0.014192      0.020732
Pd     11.24453     14.79848     11.53576        -0.038013      0.036723     -0.029366
Pd     10.11698     12.45865     11.15515        -0.039728      0.036796     -0.062595
Pd     13.47616     12.13404      7.97168         0.005915      0.002437      0.009939
Pd     11.47435     11.55116      6.11787         0.010049      0.006987     -0.013635
Pd      7.84144      8.59222      7.55488         0.013013     -0.036448     -0.014080
Pd      8.74636     11.72467      6.90064        -0.012120      0.005644     -0.028204
Pd     10.31627      9.45319      8.13148         0.003709      0.021831      0.017253
Pd      8.50771     14.42386      6.87936         0.005655      0.015543     -0.035592
Pd     12.37881      9.02794      6.57195        -0.014447      0.006858      0.020168
Pd      9.74327      9.60638      5.54833        -0.004525     -0.002891      0.009226
Pd      6.88687      9.46418     12.19397        -0.013815     -0.002256     -0.006264
Pd     12.21020      6.67337      7.84700        -0.000202      0.019809      0.029516
Pd      5.96434     10.49008      9.74305        -0.010309     -0.031203     -0.020715
Pd      7.56990      7.09585     13.18920         0.020795      0.053163      0.065769
Ir     11.83493      9.68968     13.06028        -0.051877      0.021706      0.021474
Ir     13.59137      8.98054     11.42871         0.002001     -0.006321      0.008707
Ir      9.42657      8.81536     13.81334        -0.000624      0.005838      0.052858
Ir     10.57861     10.91442     14.85321        -0.011823     -0.014488      0.009967
Ir      7.31524     12.04834     11.37491        -0.028787     -0.011214     -0.007509
Ir     14.70450     10.81706     10.06205         0.004290      0.016275      0.029978
Ir     12.20652     10.45666      9.64987        -0.032303      0.031228      0.006812
Ir      8.77997     11.05348     13.04146         0.015205     -0.010658     -0.006724
Ir     10.16058      9.83045     11.24965        -0.019069      0.037354     -0.029549
Ir     13.80444     11.35265     12.38010        -0.040504      0.009273      0.045851
Ir     11.71232     12.29178     13.12106        -0.066162     -0.005840      0.007894
Ir      8.54779     11.06005      9.40358        -0.011239     -0.018641     -0.002974
Ir     11.59681      7.95986     10.04994         0.018690      0.016293      0.005471
Ir      7.22601     12.96740      8.69195         0.001361      0.032200      0.009455
Ir      9.50743      7.00134      9.07320         0.017582     -0.017290      0.003391
Ir      8.08453      8.73446     10.11465        -0.041244      0.055316     -0.009629
Ir     10.76804     12.07955      8.55127        -0.003556      0.003137     -0.004259
Ir      9.59246      7.38936     11.62783        -0.012384      0.017700      0.067372
Ir     13.70260      8.66889      8.78897        -0.004854      0.022253      0.006905
