152
# total energy = -1005.97538229 eVH     10.35389      5.87395      7.64558         0.254137      0.038103      0.638924
H     10.62451     15.10445      7.64558        -0.109810     -0.143129      0.530237
H     10.62451      5.87395     13.33282         0.488087      0.120478     -0.586052
H     10.35389     15.10445     13.33282         0.069792     -0.184788     -0.543213
H      7.64558     10.35389      5.87395         0.369906      0.041872      0.173323
H      7.64558     10.62451     15.10445         0.689060      0.469443     -0.042723
H     13.33282     10.62451      5.87395        -0.531944      0.417134      0.074928
H     13.33282     10.35389     15.10445        -0.797124     -0.093495      0.001333
H      5.87395      7.64558     10.35389         0.252953      0.809315     -0.266735
H     15.10445      7.64558     10.62451        -0.095433      0.485331      0.284719
H      5.87395     13.33282     10.62451         0.156092     -0.697935     -0.162939
H     15.10445     13.33282     10.35389        -0.003560     -1.047166     -0.330256
H      5.87395     10.35389      7.64558         0.250794      0.133025      0.593095
H     15.10445     10.62451      7.64558        -0.112369      0.408857      0.770080
H      5.87395     10.62451     13.33282         0.141671      0.337699     -0.694644
H     15.10445     10.35389     13.33282        -0.038984     -0.074589     -0.703334
H     10.35389      7.64558      5.87395         0.362104      1.049947     -0.008450
H     10.62451      7.64558     15.10445         0.536772      0.536475     -0.117781
H     10.62451     13.33282      5.87395        -0.397836     -0.835460      0.189674
H     10.35389     13.33282     15.10445        -0.042685     -0.432734     -0.217020
H      7.64558      5.87395     10.35389         0.854217      0.086283     -0.288029
H      7.64558     15.10445     10.62451         0.826817     -0.201681     -0.000424
H     13.33282      5.87395     10.62451        -0.793397      0.188650      0.593115
H     13.33282     15.10445     10.35389        -0.443967     -0.106472     -0.136260
H     12.45634     12.45634     19.01126         0.235373      0.271113     -0.239404
H     19.01126     19.01126     19.01126        -0.262141     -0.240649     -0.261401
H     19.01126     12.45634     12.45634        -0.267015      0.268355      0.219978
H     12.45634     19.01126     12.45634         0.232565     -0.256927      0.276286
C     10.35284      5.61067      6.59456        -0.430874     -0.683725      0.140774
C     10.62556     15.36773      6.59456         0.066411      0.362721     -0.309662
C     10.62556      5.61067     14.38384        -0.328806     -0.377717     -0.293827
C     10.35284     15.36773     14.38384        -0.006448      0.341471      0.532682
C      6.59456     10.35284      5.61067        -0.296628     -0.006201     -0.318317
C      6.59456     10.62556     15.36773        -0.247553     -0.216635      0.792943
C     14.38384     10.62556      5.61067        -0.235235     -0.395773     -0.527093
C     14.38384     10.35284     15.36773         0.969507     -0.065165      0.255968
C      5.61067      6.59456     10.35284        -0.535428     -0.009532      0.020364
C     15.36773      6.59456     10.62556         0.536986      0.014666     -0.249658
C      5.61067     14.38384     10.62556        -0.320097      0.978639      0.080695
C     15.36773     14.38384     10.35284         0.298673      1.048423      0.049547
C      5.61067     10.35284      6.59456        -0.194185     -0.189899     -0.609338
C     15.36773     10.62556      6.59456         0.445558     -0.273772      0.115092
C      5.61067     10.62556     14.38384        -0.695315     -0.343292     -0.087041
C     15.36773     10.35284     14.38384         0.381965     -0.064074      1.026069
C     10.35284      6.59456      5.61067        -0.218127     -0.293372     -0.655951
C     10.62556      6.59456     15.36773        -0.266901      0.131365      0.454086
C     10.62556     14.38384      5.61067         0.195091      1.061917     -0.345448
C     10.35284     14.38384     15.36773         0.015072      0.544870      0.442076
C      6.59456      5.61067     10.35284        -0.136290     -0.758070      0.256926
C      6.59456     15.36773     10.62556        -1.002210      0.283154      0.080169
C     14.38384      5.61067     10.62556         0.494029     -0.554581     -0.368084
C     14.38384     15.36773     10.35284         0.218932      0.461722     -0.099061
C     10.40319      3.19606      7.29314         0.014035      0.675632     -0.478768
C     10.35913      4.25547      6.23373         0.088080     -0.719201     -0.020474
C      0.08601      7.29314      7.29314        -0.044533     -0.407644     -0.314612
C      0.13007      6.23373      6.23373        -0.023031      0.089094      0.574354
C      0.08601      3.19606      3.19606        -0.011973      1.276514      0.284545
C      0.13007      4.25547      4.25547         0.050687     -0.779936     -0.157383
C     10.40319      7.29314      3.19606         0.011514     -0.322178      0.325625
C     10.35913      6.23373      4.25547         0.024994      0.006308     -0.833243
C      7.29314     10.40319      3.19606        -0.314894      0.022632      0.563061
C      6.23373     10.35913      4.25547         0.196734      0.064792     -0.085054
C      7.29314      0.08601      7.29314        -0.514129     -0.065277     -0.377232
C      6.23373      0.13007      6.23373         0.677368     -0.055676      0.478104
C      3.19606      0.08601      3.19606         0.732984     -0.033678      0.570332
C      4.25547      0.13007      4.25547        -0.582894     -0.087407     -0.543282
C      3.19606     10.40319      7.29314         0.479140     -0.012723     -0.765024
C      4.25547     10.35913      6.23373        -0.382085      0.057598      0.197489
C      3.19606      7.29314     10.40319         0.296214     -1.278628      0.046419
C      4.25547      6.23373     10.35913        -0.792349      0.109831      0.150479
C      7.29314      7.29314      0.08601        -0.407925     -0.375787     -0.026779
C      6.23373      6.23373      0.13007         0.465332      0.215601     -0.016102
C      3.19606      3.19606      0.08601         0.487947      0.375861     -0.041131
C      4.25547      4.25547      0.13007        -0.158153     -0.648086     -0.035235
C      7.29314      3.19606     10.40319        -0.326495      0.439880      0.076807
C      6.23373      4.25547     10.35913         0.289165     -0.681278      0.146806
O     10.43466      3.58206      8.50569        -0.018346      0.106543      0.502664
O     10.54374     17.39634      8.50569         0.036299     -0.175323      0.487509
O     10.54374      3.58206     12.47271         0.053596     -0.090082     -0.183327
O     10.43466     17.39634     12.47271        -0.039131     -0.183425     -0.542178
O      8.50569     10.43466      3.58206         0.301532     -0.005223      0.025128
O      8.50569     10.54374     17.39634         0.626041      0.035190     -0.143666
O     12.47271     10.54374      3.58206        -0.713253      0.085507      0.094959
O     12.47271     10.43466     17.39634        -0.437340      0.024383     -0.108616
O      3.58206      8.50569     10.43466         0.176672      1.042259     -0.039509
O     17.39634      8.50569     10.54374        -0.160520      0.541363      0.076463
O      3.58206     12.47271     10.54374         0.085730     -0.370423      0.049485
O     17.39634     12.47271     10.43466        -0.156741     -0.546330     -0.022609
O      3.58206     10.43466      8.50569         0.079086     -0.067923      0.590773
O     17.39634     10.54374      8.50569        -0.111240      0.066394      0.526470
O      3.58206     10.54374     12.47271         0.039537      0.046931     -0.519140
O     17.39634     10.43466     12.47271        -0.223881     -0.038263     -0.606860
O     10.43466      8.50569      3.58206        -0.040219      0.452057      0.137030
O     10.54374      8.50569     17.39634         0.050949      0.531984     -0.159066
O     10.54374     12.47271      3.58206         0.004663     -1.022389      0.201762
O     10.43466     12.47271     17.39634         0.041144     -0.722598     -0.174588
O      8.50569      3.58206     10.43466         0.510061      0.146329     -0.055445
O      8.50569     17.39634     10.54374         0.486915     -0.195801      0.015091
O     12.47271      3.58206     10.54374        -0.631095      0.228908      0.011026
O     12.47271     17.39634     10.43466        -0.224502      0.066606     -0.054454
O     11.90042     11.90042     19.56718        -0.239330     -0.290122      0.247513
O     19.56718     19.56718     19.56718         0.310882      0.295441      0.301748
O     19.56718     11.90042     11.90042         0.291935     -0.264238     -0.232948
O     11.90042     19.56718     11.90042        -0.241700      0.291177     -0.328944
O      9.45224      1.03696      9.45224        -0.018788      0.088466     -0.072946
O      1.03696      9.45224      9.45224         0.092000     -0.091887     -0.136288
O      1.03696      1.03696      1.03696         0.091183      0.189126      0.050678
O      9.45224      9.45224      1.03696        -0.108463     -0.104383      0.034795
Zr     10.48920      2.52580     10.48920        -0.127653     -0.286602     -0.037701
Zr     10.48920     18.45260     10.48920        -0.075238      0.215268      0.079305
Zr     10.48920     10.48920      2.52580         0.022699     -0.402618     -0.257959
Zr     10.48920     10.48920     18.45260        -0.280561     -0.091486      0.321927
Zr      2.52580     10.48920     10.48920        -0.381591      0.239516      0.287762
Zr     18.45260     10.48920     10.48920         0.235937     -0.004003     -0.224111
Pd     13.60232      8.96440      9.23235         0.002463      0.005204     -0.004469
Pd      5.63080      9.87675     10.14453        -0.000834     -0.004682      0.000625
Pd      6.78192     11.85797     11.70494        -0.003188     -0.002481      0.001294
Pd     12.06313     13.01157      7.37190         0.003585     -0.002637     -0.006029
Pd     11.88378      7.73706      7.46117        -0.000708      0.003669     -0.001043
Pd      8.31267      6.85786      6.58546         0.000886      0.002299     -0.011592
Pd     10.64583     11.17474      5.64313        -0.010047     -0.001145      0.002127
Pd     14.39964      8.55142      6.75021         0.001450     -0.000640     -0.003209
Pd      9.67973     11.72867      8.11800        -0.003972      0.002771      0.003726
Pd      6.76310      6.79858     12.32101        -0.007159     -0.000907      0.002786
Pd      6.53108      8.04416      8.07146         0.009855      0.037238     -0.029737
Pd      6.53643      8.50052     14.35567        -0.005872     -0.002178      0.005609
Pd     11.49956      6.52551      9.93736        -0.002926     -0.002061     -0.001506
Pd      9.51757      9.20328      7.14340        -0.008292      0.000948      0.005459
Pd      8.98179     13.98482      9.32183         0.000321      0.003044      0.005049
Pd      9.47569      7.37168     11.72731        -0.005167     -0.001160     -0.004926
Pd     10.61591      8.98572      9.68424         0.000228     -0.004186      0.000737
Pd      9.33883     11.53484     10.70238        -0.000513      0.004842      0.004344
Pd      8.90352      7.05152      9.15029        -0.007771      0.002730     -0.007456
Pd      8.55297      6.57616     14.24730         0.000059      0.001100     -0.004127
Pd      7.65489      9.33389     11.98229        -0.005160     -0.002831      0.008633
Pd     11.97617     10.38059      7.72810        -0.006799      0.000730      0.001733
Pd      7.13347     12.01357      9.05786        -0.001117      0.001227      0.002812
Pd      8.12442      9.60550      9.37856         0.002499      0.004651      0.014395
Pd     14.02303      6.48683      8.51619        -0.002798      0.003960      0.001187
Pd     12.61172      8.38836     11.58815        -0.000271      0.003040     -0.004501
Pd      8.77160     11.57601     13.40338        -0.003380      0.001816      0.001033
Pd     13.89244     11.94202      8.96227        -0.001725     -0.005863      0.002599
Pd     12.95809     10.69573     13.05973        -0.006263      0.001513      0.004658
Pd     14.79293     10.44819     11.09704        -0.005480     -0.002729      0.007602
Pd     12.08031     10.89848     10.52545        -0.005103     -0.001721      0.003886
Pd     11.44040     13.35110      9.93678         0.001832     -0.003489     -0.006002
Pd     13.60284     12.92426     11.62755        -0.001484     -0.001555      0.000290
Pd     11.12473     12.60723     12.53693        -0.002756      0.004161     -0.000702
Pd     10.95867     11.05593     14.81226        -0.005581      0.002582      0.001836
Pd     10.51634      9.74446     12.37827        -0.004316     -0.002746      0.001351
Pd      9.08828      9.14003     14.41377        -0.004561      0.001180      0.004336
Pd      8.83015     13.84956     12.01617        -0.005134      0.003540      0.004821
