152
# total energy = -1061.44635479 eVH     10.35389      5.87395      7.64558        -0.204491      0.128387      1.025342
H     10.62451     15.10445      7.64558         0.443876     -0.118698      0.786493
H     10.62451      5.87395     13.33282        -0.089887      0.100598     -0.453571
H     10.35389     15.10445     13.33282         0.087245     -0.191721     -0.405104
H      7.64558     10.35389      5.87395         0.882575      0.201460      0.222409
H      7.64558     10.62451     15.10445         0.210453     -0.023256     -0.070853
H     13.33282     10.62451      5.87395        -0.596029     -0.049161      0.168326
H     13.33282     10.35389     15.10445        -0.322649     -0.055114     -0.076968
H      5.87395      7.64558     10.35389         0.127200      0.361838     -0.078367
H     15.10445      7.64558     10.62451        -0.138074      0.440912      0.176849
H      5.87395     13.33282     10.62451         0.106909     -0.640104      0.125525
H     15.10445     13.33282     10.35389        -0.228783     -0.435927      0.091673
H      5.87395     10.35389      7.64558         0.155881      0.284515      0.388340
H     15.10445     10.62451      7.64558        -0.139924     -0.359738      0.735331
H      5.87395     10.62451     13.33282         0.036570      0.149399     -0.708282
H     15.10445     10.35389     13.33282         0.075338     -0.243818     -0.730428
H     10.35389      7.64558      5.87395        -0.161423      0.447314      0.213805
H     10.62451      7.64558     15.10445         0.370264      0.612040     -0.120074
H     10.62451     13.33282      5.87395         0.074052     -0.556900      0.100494
H     10.35389     13.33282     15.10445         0.259357     -0.712451     -0.090107
H      7.64558      5.87395     10.35389         0.489256      0.145527     -0.155883
H      7.64558     15.10445     10.62451         0.398918     -0.145700      0.444151
H     13.33282      5.87395     10.62451        -0.390711      0.161104     -0.076836
H     13.33282     15.10445     10.35389        -0.582897     -0.293334      0.119133
H     12.45634     12.45634     19.01126         0.230650      0.265709     -0.249183
H     19.01126     19.01126     19.01126        -0.261761     -0.259156     -0.230647
H     19.01126     12.45634     12.45634        -0.234334      0.276186      0.235049
H     12.45634     19.01126     12.45634         0.276057     -0.210607      0.256138
C     10.35284      5.61067      6.59456         0.274907     -0.304569     -0.777833
C     10.62556     15.36773      6.59456        -0.188009      0.636296     -0.303558
C     10.62556      5.61067     14.38384         0.252722     -0.235678      0.488126
C     10.35284     15.36773     14.38384        -0.112073      0.277663      0.283820
C      6.59456     10.35284      5.61067        -0.832130     -0.094682     -0.242456
C      6.59456     10.62556     15.36773        -0.514962      0.046460      0.346799
C     14.38384     10.62556      5.61067         0.785155     -0.031419     -0.629753
C     14.38384     10.35284     15.36773         0.268058     -0.071829      0.348412
C      5.61067      6.59456     10.35284        -0.407725     -0.356894      0.079022
C     15.36773      6.59456     10.62556         0.318204     -0.471592     -0.065770
C      5.61067     14.38384     10.62556        -0.150837      0.485042     -0.414353
C     15.36773     14.38384     10.35284         0.410753      0.825880     -0.096284
C      5.61067     10.35284      6.59456        -0.318556     -0.174775     -0.108537
C     15.36773     10.62556      6.59456         0.209919      0.280117     -0.578638
C      5.61067     10.62556     14.38384        -0.343637     -0.040632      1.213272
C     15.36773     10.35284     14.38384         0.293548     -0.066246      0.989827
C     10.35284      6.59456      5.61067         0.081708     -0.241955     -0.505189
C     10.62556      6.59456     15.36773         0.012622     -0.779964      0.115689
C     10.62556     14.38384      5.61067        -0.383528      0.189467     -0.927047
C     10.35284     14.38384     15.36773        -0.259687      0.832342      0.269428
C      6.59456      5.61067     10.35284        -0.354326     -0.291214      0.258525
C      6.59456     15.36773     10.62556        -0.259974      0.516140     -0.066299
C     14.38384      5.61067     10.62556         0.475570     -0.379780      0.059358
C     14.38384     15.36773     10.35284         0.976802      0.273337     -0.065912
C     10.40319      3.19606      7.29314         0.008410      0.549310     -0.314986
C     10.35913      4.25547      6.23373        -0.012792     -0.525838      0.408266
C      0.08601      7.29314      7.29314        -0.015344     -0.839843     -0.565626
C      0.13007      6.23373      6.23373        -0.192662      0.877996      0.151826
C      0.08601      3.19606      3.19606        -0.009748      0.415068      0.388939
C      0.13007      4.25547      4.25547         0.067101     -0.232830     -0.567439
C     10.40319      7.29314      3.19606        -0.045891     -1.018164      0.788727
C     10.35913      6.23373      4.25547         0.018769      0.335606     -0.232990
C      7.29314     10.40319      3.19606        -1.330788     -0.085196      0.326100
C      6.23373     10.35913      4.25547         0.264118      0.017656     -0.701695
C      7.29314      0.08601      7.29314        -0.828966     -0.002451     -0.409712
C      6.23373      0.13007      6.23373         0.326204      0.052592      0.126276
C      3.19606      0.08601      3.19606         0.320558     -0.000063      0.432172
C      4.25547      0.13007      4.25547        -0.284086     -0.032243     -0.176605
C      3.19606     10.40319      7.29314         0.494318     -0.040931     -1.036179
C      4.25547     10.35913      6.23373        -0.323897     -0.076196      0.096843
C      3.19606      7.29314     10.40319         1.081601     -0.443726      0.012788
C      4.25547      6.23373     10.35913        -0.194622      0.166920     -0.000173
C      7.29314      7.29314      0.08601        -0.511242     -0.281420     -0.007502
C      6.23373      6.23373      0.13007         0.167052      0.184343     -0.157424
C      3.19606      3.19606      0.08601         0.357761      0.884694     -0.008798
C      4.25547      4.25547      0.13007        -0.591827     -0.179184      0.037409
C      7.29314      3.19606     10.40319        -0.198584      0.493688      0.026650
C      6.23373      4.25547     10.35913        -0.010705     -0.368323      0.043302
O     10.43466      3.58206      8.50569        -0.023324      0.132850      0.389454
O     10.54374     17.39634      8.50569         0.041197      0.051724      0.368029
O     10.54374      3.58206     12.47271         0.040863      0.194797     -0.575259
O     10.43466     17.39634     12.47271         0.030037     -0.020858     -0.477561
O      8.50569     10.43466      3.58206         0.771913     -0.060136     -0.029181
O      8.50569     10.54374     17.39634         0.854187      0.022124     -0.162972
O     12.47271     10.54374      3.58206        -0.348150      0.035953      0.083242
O     12.47271     10.43466     17.39634        -0.377495     -0.036707      0.039780
O      3.58206      8.50569     10.43466        -0.102944      0.262049     -0.079736
O     17.39634      8.50569     10.54374        -0.104365      0.445817      0.044033
O      3.58206     12.47271     10.54374         0.150675     -0.824658     -0.022218
O     17.39634     12.47271     10.43466        -0.238254     -0.632474     -0.016618
O      3.58206     10.43466      8.50569         0.126662     -0.031939      0.794650
O     17.39634     10.54374      8.50569         0.001763      0.036397      0.339009
O      3.58206     10.54374     12.47271         0.066916      0.018166     -0.458026
O     17.39634     10.43466     12.47271         0.057580      0.012594     -0.239143
O     10.43466      8.50569      3.58206        -0.054908      0.551745     -0.069696
O     10.54374      8.50569     17.39634         0.029447      0.862882     -0.203805
O     10.54374     12.47271      3.58206         0.070585     -0.368863      0.072807
O     10.43466     12.47271     17.39634        -0.055106     -0.643516     -0.198720
O      8.50569      3.58206     10.43466         0.351349      0.083825     -0.052338
O      8.50569     17.39634     10.54374         0.565631     -0.168386     -0.018927
O     12.47271      3.58206     10.54374        -0.366898      0.049139      0.036408
O     12.47271     17.39634     10.43466        -0.830047     -0.143980      0.074724
O     11.90042     11.90042     19.56718        -0.243574     -0.283262      0.237318
O     19.56718     19.56718     19.56718         0.300731      0.292839      0.250270
O     19.56718     11.90042     11.90042         0.228716     -0.305522     -0.275783
O     11.90042     19.56718     11.90042        -0.274569      0.180082     -0.276916
O      9.45224      1.03696      9.45224        -0.107230      0.086079     -0.086248
O      1.03696      9.45224      9.45224         0.122613     -0.150327     -0.174618
O      1.03696      1.03696      1.03696         0.138741      0.209221     -0.002383
O      9.45224      9.45224      1.03696        -0.211816     -0.172139      0.029017
Zr     10.48920      2.52580     10.48920        -0.004509     -0.232891      0.147485
Zr     10.48920     18.45260     10.48920        -0.300800      0.310211     -0.152530
Zr     10.48920     10.48920      2.52580         0.366424      0.387512     -0.230232
Zr     10.48920     10.48920     18.45260        -0.000645      0.021087      0.469747
Zr      2.52580     10.48920     10.48920        -0.558740      0.019825      0.343188
Zr     18.45260     10.48920     10.48920         0.272342     -0.142886      0.001773
Pd      9.22166     14.66575      9.22366         0.006746      0.003506      0.007353
Pd      8.47213     13.21028     13.82186         0.001240     -0.000570      0.008513
Pd     12.14375     14.12973      8.65829         0.003668      0.008062      0.005013
Pd     12.24851     12.75800     10.89415         0.005545     -0.021164      0.015437
Pd     11.77052      7.07633     11.87703         0.000358      0.003124     -0.008198
Pd     11.18021     15.31369     10.94695        -0.009852     -0.006318      0.006176
Pd      9.60954     13.16710     11.40587        -0.003583     -0.008539      0.001581
Pd     14.02313     12.40287      7.96782        -0.003029     -0.002055      0.002761
Pd     11.57182     11.77577      6.74802         0.000767      0.006087      0.006083
Pd      7.41709      8.53099      7.19225         0.005141      0.005425      0.000952
Pd      8.60513     12.10550      6.91432        -0.010525     -0.007332      0.007461
Pd      9.70413      9.91040      7.99655         0.000467      0.005179      0.001608
Pd      8.47603     14.75410      6.58476        -0.001571      0.009827     -0.003129
Pd     12.01139      9.06482      6.83410        -0.000632      0.013325     -0.007512
Pd      9.89786     10.05850      5.40090         0.006619      0.014785      0.005471
Pd      6.89845      9.21938     12.16909        -0.009008     -0.002437      0.009086
Pd     12.39662      6.53650      7.65962         0.012028     -0.001683     -0.001200
Pd      5.56584     10.69247     10.10674         0.005814      0.001249      0.013747
Pd      7.56518      6.66412     12.69375        -0.007494     -0.012091      0.009064
Ir     11.27804      9.53594     12.83579        -0.000266     -0.017412     -0.017792
Ir     13.06835      9.23200     11.06973        -0.009810     -0.015336      0.007316
Ir      9.14952      8.42096     13.75391        -0.003795     -0.005456      0.012614
Ir     10.27648     10.37287     15.06345        -0.011118     -0.007962      0.009565
Ir      7.10182     11.91015     11.84775        -0.011466      0.007640     -0.008659
Ir     14.40064     11.19218     10.31276         0.008389     -0.010955      0.004840
Ir     12.26761     10.62794      9.04931        -0.022857      0.007617     -0.001580
Ir      8.92400     10.78947     12.89066        -0.003974     -0.001219     -0.001408
Ir     10.01470     10.29391     10.61069        -0.003667      0.000933     -0.003545
Ir     13.29754     11.19062     12.60363        -0.001178      0.009699      0.000554
Ir     11.09470     12.03958     13.31919        -0.005000      0.006000      0.009469
Ir      7.95006     11.74083      9.51133        -0.000593     -0.006858      0.021504
Ir     11.26398      8.16253      9.43294         0.003527      0.004951      0.008611
Ir      6.98117     13.61238      8.38826        -0.003240      0.020099      0.007085
Ir      9.04580      7.29074      8.79316        -0.003809      0.002512     -0.002239
Ir      7.72980      9.21996      9.70463         0.004713      0.001453      0.008651
Ir     10.35521     12.34617      8.98044        -0.005287     -0.007933     -0.000310
Ir      9.31459      7.90191     11.24880         0.017464     -0.001795     -0.025837
Ir     13.73265      8.47774      8.78171         0.001378      0.004981     -0.000703
