26
# total energy = -169.64826870 eVH      0.37239      6.90868      7.50000         0.011816      0.005405     -0.000000
H      2.82228      2.06113      7.50000         0.011454      0.011447     -0.000000
H      6.19593      6.71800      7.50000        -0.018338      0.027287     -0.000000
H      8.94159     -1.55383      7.50000        -0.011816     -0.005405     -0.000000
H      6.49171      3.29371      7.50000        -0.011454     -0.011447     -0.000000
H      3.11805     -1.36316      7.50000         0.018338     -0.027287     -0.000000
C      8.50696      4.15810      7.50000         0.042411      0.004727     -0.000000
C      1.45187     -0.08582      7.50000         0.010967      0.041328      0.000000
C      8.71005     -3.71401      7.50000        -0.038409      0.003565      0.000000
C      0.80702      1.19675      7.50000        -0.042411     -0.004727      0.000000
C      7.86212      5.44066      7.50000        -0.010967     -0.041328     -0.000000
C      0.60393      9.06886      7.50000         0.038409     -0.003565     -0.000000
C      8.20660     -2.36303      7.50000        -0.010456      0.023403     -0.000000
C      7.54897      2.98345      7.50000         0.004252     -0.008929     -0.000000
C      2.85589     -0.31337      7.50000         0.018097      0.005632      0.000000
C      1.10738      7.71788      7.50000         0.010456     -0.023403     -0.000000
C      1.76501      2.37140      7.50000        -0.004252      0.008929     -0.000000
C      6.45809      5.66822      7.50000        -0.018097     -0.005632      0.000000
O      6.96108     -2.07534      7.50000         0.004310      0.033779      0.000000
O      7.81182      1.78082      7.50000         0.002194     -0.003973     -0.000000
O      3.86916      0.51665      7.50000         0.002206      0.027238     -0.000000
O      2.35291      7.43019      7.50000        -0.004310     -0.033779      0.000000
O      1.50216      3.57403      7.50000        -0.002194      0.003973      0.000000
O      5.44483      4.83820      7.50000        -0.002206     -0.027238     -0.000000
Au      5.62118     -0.55683      7.50000         0.032943     -0.003731     -0.000000
Au      3.69280      5.91168      7.50000        -0.032943      0.003731      0.000000
