152
# total energy = -1110.39512681 eVH     10.35389      5.87395      7.64558        -0.392818     -0.128557      1.162638
H     10.62451     15.10445      7.64558         0.324241      0.078201      0.915705
H     10.62451      5.87395     13.33282        -0.317153     -0.671526     -1.327796
H     10.35389     15.10445     13.33282        -0.584498      0.428537     -0.335820
H      7.64558     10.35389      5.87395         0.561202     -0.520170     -0.103111
H      7.64558     10.62451     15.10445         0.386077     -0.232161      0.042343
H     13.33282     10.62451      5.87395        -0.585491      0.649877     -0.050664
H     13.33282     10.35389     15.10445        -0.525307      0.382382      0.151234
H      5.87395      7.64558     10.35389         0.149452      0.557845      0.027249
H     15.10445      7.64558     10.62451         0.427212      1.027504      0.290132
H      5.87395     13.33282     10.62451        -0.219657     -0.504663      0.361886
H     15.10445     13.33282     10.35389         0.028605     -0.298751     -0.381333
H      5.87395     10.35389      7.64558        -0.106862     -0.419519      1.496447
H     15.10445     10.62451      7.64558         0.221187      0.520333      1.330783
H      5.87395     10.62451     13.33282        -0.216876     -0.368684     -1.205137
H     15.10445     10.35389     13.33282         0.615858      1.015606     -1.535200
H     10.35389      7.64558      5.87395        -0.591213      0.535009     -0.171238
H     10.62451      7.64558     15.10445        -0.131927      0.443000      0.153273
H     10.62451     13.33282      5.87395         0.867813     -1.322845     -0.311877
H     10.35389     13.33282     15.10445         0.220335     -0.563079     -0.107851
H      7.64558      5.87395     10.35389         0.722331      0.161977     -0.176641
H      7.64558     15.10445     10.62451         1.980474      0.745159      0.225421
H     13.33282      5.87395     10.62451        -2.643659     -0.890131     -0.524260
H     13.33282     15.10445     10.35389        -0.876438     -0.056510     -0.253816
H     12.45634     12.45634     19.01126         0.271991      0.257915     -0.227425
H     19.01126     19.01126     19.01126        -0.266696     -0.254562     -0.238805
H     19.01126     12.45634     12.45634        -0.284222      0.281899      0.184625
H     12.45634     19.01126     12.45634         0.256660     -0.250523      0.235704
C     10.35284      5.61067      6.59456         0.076907     -0.478480     -1.198375
C     10.62556     15.36773      6.59456         0.195660      0.755302     -0.812892
C     10.62556      5.61067     14.38384         0.177730     -0.294119      1.781161
C     10.35284     15.36773     14.38384         0.084449      0.383817      1.789389
C      6.59456     10.35284      5.61067        -1.139735     -0.110410     -0.902201
C      6.59456     10.62556     15.36773        -0.699474     -0.093391      0.798416
C     14.38384     10.62556      5.61067         0.833104     -0.112186     -0.988142
C     14.38384     10.35284     15.36773         1.174591      0.168049      1.095313
C      5.61067      6.59456     10.35284        -0.668646     -0.903228     -0.189478
C     15.36773      6.59456     10.62556         2.017476     -0.332757     -0.187255
C      5.61067     14.38384     10.62556        -1.568742     -0.016095     -0.142455
C     15.36773     14.38384     10.35284         0.484632      0.091498     -0.000718
C      5.61067     10.35284      6.59456        -0.273306      0.217909     -1.354989
C     15.36773     10.62556      6.59456         0.299959     -0.270870     -0.976835
C      5.61067     10.62556     14.38384        -0.257425      0.448935      1.453190
C     15.36773     10.35284     14.38384        -0.008659     -0.501112      1.945331
C     10.35284      6.59456      5.61067        -0.156174     -0.841119     -0.701515
C     10.62556      6.59456     15.36773        -0.119074     -0.706860      1.040899
C     10.62556     14.38384      5.61067        -0.499533      1.984815     -0.748714
C     10.35284     14.38384     15.36773        -0.256672      1.349705      0.504268
C      6.59456      5.61067     10.35284        -0.992124     -0.410219      0.096042
C      6.59456     15.36773     10.62556        -1.250571      0.366654     -0.333470
C     14.38384      5.61067     10.62556         1.266370     -1.305643      0.226333
C     14.38384     15.36773     10.35284         0.456399      0.311263      0.087142
C     10.40319      3.19606      7.29314         0.001131      0.304952     -0.113126
C     10.35913      4.25547      6.23373         0.142276     -0.584743      0.017129
C      0.08601      7.29314      7.29314        -0.053535     -0.275816     -0.419186
C      0.13007      6.23373      6.23373        -0.124468      0.662895      0.015355
C      0.08601      3.19606      3.19606        -0.105567      1.668371      0.164794
C      0.13007      4.25547      4.25547        -0.099653     -0.390679     -1.201703
C     10.40319      7.29314      3.19606         0.015907     -0.454520      0.121834
C     10.35913      6.23373      4.25547         0.264461      0.087627     -0.539886
C      7.29314     10.40319      3.19606        -1.700864      0.011806      0.324974
C      6.23373     10.35913      4.25547         0.674510      0.082398     -0.626465
C      7.29314      0.08601      7.29314        -0.411028     -0.016065     -0.319170
C      6.23373      0.13007      6.23373         0.734413     -0.058874      0.242115
C      3.19606      0.08601      3.19606         0.663437     -0.019019      0.178786
C      4.25547      0.13007      4.25547        -0.352731     -0.086822     -0.577932
C      3.19606     10.40319      7.29314         0.346324      0.024495     -0.320213
C      4.25547     10.35913      6.23373        -0.744525      0.081546      0.361254
C      3.19606      7.29314     10.40319         0.283800     -0.200932     -0.006402
C      4.25547      6.23373     10.35913         0.043091      0.631112      0.091892
C      7.29314      7.29314      0.08601        -0.713960     -0.608522     -0.029388
C      6.23373      6.23373      0.13007         0.903227      1.123251     -0.065116
C      3.19606      3.19606      0.08601         0.825282      0.514597     -0.000588
C      4.25547      4.25547      0.13007        -0.321454     -1.771142     -0.130982
C      7.29314      3.19606     10.40319        -0.324028      0.270706     -0.004576
C      6.23373      4.25547     10.35913         0.510756     -0.018817      0.231958
O     10.43466      3.58206      8.50569        -0.048522      0.187699      0.260296
O     10.54374     17.39634      8.50569         0.042197     -0.237126      0.487596
O     10.54374      3.58206     12.47271         0.084268     -0.077712     -0.020334
O     10.43466     17.39634     12.47271        -0.023192     -0.141369     -0.267718
O      8.50569     10.43466      3.58206         0.993742      0.190778      0.374846
O      8.50569     10.54374     17.39634         0.581073      0.084250     -0.229456
O     12.47271     10.54374      3.58206        -0.412370     -0.041454      0.181001
O     12.47271     10.43466     17.39634        -0.504508     -0.067033     -0.192341
O      3.58206      8.50569     10.43466         0.184519      0.422211     -0.028584
O     17.39634      8.50569     10.54374        -0.230243      0.711414      0.046672
O      3.58206     12.47271     10.54374         0.162123     -0.682419      0.026602
O     17.39634     12.47271     10.43466        -0.187003     -0.474366     -0.009988
O      3.58206     10.43466      8.50569         0.232794     -0.062047      0.407066
O     17.39634     10.54374      8.50569        -0.172018      0.037513      0.413462
O      3.58206     10.54374     12.47271         0.148025      0.021798     -0.303315
O     17.39634     10.43466     12.47271         0.083138     -0.051926     -0.068428
O     10.43466      8.50569      3.58206         0.006104      0.273975      0.183962
O     10.54374      8.50569     17.39634         0.069418      0.424102     -0.173014
O     10.54374     12.47271      3.58206        -0.222032     -0.975490      0.326908
O     10.43466     12.47271     17.39634        -0.081722     -0.451672     -0.245426
O      8.50569      3.58206     10.43466         0.488338      0.197436     -0.009520
O      8.50569     17.39634     10.54374         0.664173     -0.204248      0.022658
O     12.47271      3.58206     10.54374        -0.747588      0.281673      0.038903
O     12.47271     17.39634     10.43466        -0.431641     -0.206327     -0.043461
O     11.90042     11.90042     19.56718        -0.347208     -0.306957      0.261477
O     19.56718     19.56718     19.56718         0.323920      0.311518      0.284662
O     19.56718     11.90042     11.90042         0.274210     -0.273015     -0.137741
O     11.90042     19.56718     11.90042        -0.305189      0.282640     -0.232828
O      9.45224      1.03696      9.45224        -0.061681      0.073578     -0.044461
O      1.03696      9.45224      9.45224         0.035793     -0.075972     -0.069507
O      1.03696      1.03696      1.03696         0.064720      0.151894      0.094318
O      9.45224      9.45224      1.03696        -0.144987     -0.100036      0.094726
Zr     10.48920      2.52580     10.48920         0.165082     -0.174739     -0.169082
Zr     10.48920     18.45260     10.48920        -0.101444      0.189065     -0.051861
Zr     10.48920     10.48920      2.52580         0.345837     -0.310449     -0.207118
Zr     10.48920     10.48920     18.45260         0.016396     -0.088964      0.198722
Zr      2.52580     10.48920     10.48920        -0.072688      0.180765     -0.052609
Zr     18.45260     10.48920     10.48920         0.148267     -0.133308     -0.253744
Ir     12.03830     12.48384     10.45302        -0.002127     -0.001647     -0.000819
Ir     11.22477      7.41292     10.23145         0.007393     -0.000399     -0.017593
Ir      8.86021      7.34593     11.51343         0.002780     -0.007772     -0.014384
Ir      7.45612     11.64714      7.65612        -0.007776      0.000161      0.001282
Ir     11.59784     12.06854      7.10893        -0.000992     -0.005349     -0.002969
Ir     13.78999      8.99278      7.51362         0.004860      0.001282     -0.010030
Ir     12.47011     13.95140      8.40309        -0.004550     -0.003804     -0.002408
Ir      9.74344     11.25287      5.53414         0.004416     -0.001106     -0.008221
Ir      9.07370     13.43597      7.07736        -0.002078     -0.007740      0.001359
Ir      9.26332      9.67622      7.49342        -0.006935      0.004267     -0.006699
Ir     13.28552      7.03164     11.96357        -0.002744     -0.005397      0.004615
Ir     13.64932      7.04303      9.10427         0.014726      0.001433     -0.001948
Ir     11.04511      7.58915     12.78849        -0.002161     -0.004285     -0.016334
Ir     13.59621     11.56453      8.74931        -0.005004     -0.001216     -0.002315
Ir     11.50160      9.61520      6.21351        -0.001803     -0.009525     -0.005923
Ir      7.16423      9.14130      8.91525         0.001003     -0.005825     -0.006224
Ir     14.06178     11.43998     11.64251         0.001140     -0.000843     -0.004274
Ir     11.66378      9.81864      8.85111         0.000387     -0.011180     -0.010022
Ir      9.44780      9.49715     10.21984         0.002325     -0.006043     -0.005616
Ir     13.88423      9.41417     10.15999         0.002397      0.001591     -0.006460
Ir     13.84613      9.16105     12.87090         0.008598     -0.001981     -0.011853
Ir     11.70814      9.75677     11.53032         0.004511     -0.002745     -0.007133
Ir      9.92116     11.72525      8.95905         0.003338     -0.002802     -0.002435
Ir      9.11969      7.43521      8.75618         0.012003      0.002633     -0.019399
Ir     11.65527      7.51096      7.70866         0.023124     -0.018080     -0.018092
Ir      9.25704      9.46276     12.99872        -0.000480     -0.007917     -0.004067
Ir      7.50461     13.89792      8.99376        -0.000101     -0.001852      0.000761
Ir     10.86062     14.09602     11.95243        -0.005303     -0.006740      0.000971
Ir     10.11169     14.14190      9.51279         0.000276     -0.006642     -0.000983
Ir      9.79202     11.67473     11.72113        -0.002139     -0.005457      0.000169
Ir      7.59350     11.55847     10.20306         0.000434     -0.002831     -0.001492
Ir      8.34351     13.72975     11.57982        -0.001057     -0.005261     -0.000028
Ir      7.52700     11.53523     12.81849        -0.000292     -0.005989      0.000027
Ir      9.78342     11.58245     14.34090         0.004970     -0.011119      0.001082
Ir     13.46373     13.88305     12.18444        -0.002067     -0.001213     -0.001074
Ir     11.99103     12.03969     13.07413         0.000612     -0.007453     -0.001729
Ir     11.59116      9.77165     14.16811         0.004609     -0.012572     -0.010755
Ir      7.16073      9.34125     11.47247        -0.000958     -0.007085     -0.004593
