152
# total energy = -1004.32466594 eVH     10.35389      5.87395      7.64558        -0.169869      0.205210      0.648108
H     10.62451     15.10445      7.64558        -0.269496     -0.135378      0.657612
H     10.62451      5.87395     13.33282         0.460646      0.038796     -0.967072
H     10.35389     15.10445     13.33282         0.065509     -0.188068     -0.539486
H      7.64558     10.35389      5.87395         0.399125      0.065029      0.118801
H      7.64558     10.62451     15.10445         0.777306      0.564318     -0.022129
H     13.33282     10.62451      5.87395        -0.451854     -0.005273      0.251391
H     13.33282     10.35389     15.10445        -0.765432     -0.208323      0.022915
H      5.87395      7.64558     10.35389         0.100541      1.901611      0.199598
H     15.10445      7.64558     10.62451        -0.090941      0.505721      0.213045
H      5.87395     13.33282     10.62451         0.211277     -0.659693     -0.015114
H     15.10445     13.33282     10.35389         0.236015     -1.454302     -0.374885
H      5.87395     10.35389      7.64558         0.096803      0.055083      0.554227
H     15.10445     10.62451      7.64558        -0.160198      0.989164      1.402674
H      5.87395     10.62451     13.33282        -0.067317      0.476122     -1.309766
H     15.10445     10.35389     13.33282         0.128502     -0.192840     -0.772458
H     10.35389      7.64558      5.87395         0.302453      1.338650      0.163227
H     10.62451      7.64558     15.10445         0.560364      0.810274     -0.084661
H     10.62451     13.33282      5.87395        -0.608665     -0.821610      0.217533
H     10.35389     13.33282     15.10445        -0.181591     -0.530766     -0.318688
H      7.64558      5.87395     10.35389         1.157149     -0.240353     -0.093596
H      7.64558     15.10445     10.62451         0.786483     -0.205608     -0.023236
H     13.33282      5.87395     10.62451        -0.603657      0.114639      0.640346
H     13.33282     15.10445     10.35389        -0.433912     -0.022089     -0.164796
H     12.45634     12.45634     19.01126         0.273456      0.244832     -0.233367
H     19.01126     19.01126     19.01126        -0.266021     -0.271932     -0.216391
H     19.01126     12.45634     12.45634        -0.275906      0.252456      0.231926
H     12.45634     19.01126     12.45634         0.252638     -0.281409      0.229619
C     10.35284      5.61067      6.59456        -0.144124     -0.823026     -0.555829
C     10.62556     15.36773      6.59456         0.101071      0.358155     -0.214172
C     10.62556      5.61067     14.38384        -0.074361     -0.575218      0.641007
C     10.35284     15.36773     14.38384        -0.005830      0.248249      0.531951
C      6.59456     10.35284      5.61067        -0.618771      0.078901     -0.425824
C      6.59456     10.62556     15.36773        -1.009963      0.232422      0.729604
C     14.38384     10.62556      5.61067         0.778292      0.039331     -0.929737
C     14.38384     10.35284     15.36773         0.932321     -0.113074      0.437196
C      5.61067      6.59456     10.35284        -0.891019     -1.067152     -0.413174
C     15.36773      6.59456     10.62556         0.670361      0.058691     -0.264477
C      5.61067     14.38384     10.62556        -0.235732      0.755146      0.016577
C     15.36773     14.38384     10.35284         0.298085      1.413724     -0.013500
C      5.61067     10.35284      6.59456        -0.277543      0.021522     -0.724844
C     15.36773     10.62556      6.59456         0.418445     -0.358068     -1.038370
C      5.61067     10.62556     14.38384        -0.352840     -0.001668      1.116019
C     15.36773     10.35284     14.38384         0.397610     -0.051955      0.861465
C     10.35284      6.59456      5.61067        -0.053055     -1.015763     -0.372810
C     10.62556      6.59456     15.36773         0.058655     -0.691318      0.540650
C     10.62556     14.38384      5.61067         0.140639      1.006878     -0.428597
C     10.35284     14.38384     15.36773        -0.020555      0.907415      0.463210
C      6.59456      5.61067     10.35284        -0.660033     -1.297230      0.106808
C      6.59456     15.36773     10.62556        -0.905643      0.171287      0.100918
C     14.38384      5.61067     10.62556        -0.088803     -0.519619     -0.347484
C     14.38384     15.36773     10.35284         0.154442      0.673126     -0.069293
C     10.40319      3.19606      7.29314         0.006271      0.732190     -0.720729
C     10.35913      4.25547      6.23373         0.014417     -0.536185      0.106426
C      0.08601      7.29314      7.29314        -0.019759     -1.013499     -0.261182
C      0.13007      6.23373      6.23373        -0.049745      0.411545      0.396236
C      0.08601      3.19606      3.19606         0.047032      1.210339      0.205525
C      0.13007      4.25547      4.25547        -0.008512     -0.402049     -0.457025
C     10.40319      7.29314      3.19606        -0.009329     -0.554424      0.219206
C     10.35913      6.23373      4.25547        -0.017887      0.125257     -0.692118
C      7.29314     10.40319      3.19606        -0.384126      0.023542      0.288450
C      6.23373     10.35913      4.25547         0.217867      0.074787     -0.103958
C      7.29314      0.08601      7.29314        -1.138872     -0.080878     -0.377439
C      6.23373      0.13007      6.23373         0.641718     -0.185202      0.364072
C      3.19606      0.08601      3.19606         1.151301     -0.018719      0.299585
C      4.25547      0.13007      4.25547        -0.572355     -0.156374     -0.214642
C      3.19606     10.40319      7.29314         0.553506      0.031762     -0.251959
C      4.25547     10.35913      6.23373        -0.223632      0.084540      0.210135
C      3.19606      7.29314     10.40319         0.311686     -0.581492      0.039931
C      4.25547      6.23373     10.35913        -1.059041      0.038964      0.178856
C      7.29314      7.29314      0.08601        -0.491531     -0.455761     -0.023263
C      6.23373      6.23373      0.13007         0.509011      0.302699      0.028425
C      3.19606      3.19606      0.08601         0.623505      0.435804     -0.023111
C      4.25547      4.25547      0.13007        -0.094843     -0.755094     -0.103929
C      7.29314      3.19606     10.40319        -0.415760      0.483768      0.048832
C      6.23373      4.25547     10.35913         0.590312     -0.752323      0.187638
O     10.43466      3.58206      8.50569         0.046675      0.170274      0.616220
O     10.54374     17.39634      8.50569         0.048653     -0.032548      0.307842
O     10.54374      3.58206     12.47271         0.002327     -0.055890     -0.208461
O     10.43466     17.39634     12.47271        -0.037683     -0.113422     -0.402985
O      8.50569     10.43466      3.58206         0.531903     -0.040425      0.129348
O      8.50569     10.54374     17.39634         0.852900     -0.080671     -0.166989
O     12.47271     10.54374      3.58206        -0.868226      0.135007      0.128197
O     12.47271     10.43466     17.39634        -0.621197      0.031302     -0.175874
O      3.58206      8.50569     10.43466         0.174486      0.682309     -0.024700
O     17.39634      8.50569     10.54374        -0.138684      0.640048      0.021797
O      3.58206     12.47271     10.54374         0.105900     -0.547441      0.056313
O     17.39634     12.47271     10.43466        -0.170716     -0.583082     -0.052024
O      3.58206     10.43466      8.50569         0.086998     -0.041358      0.391614
O     17.39634     10.54374      8.50569         0.053392      0.098190      0.340993
O      3.58206     10.54374     12.47271        -0.015603      0.035062     -0.246486
O     17.39634     10.43466     12.47271        -0.129465     -0.029790     -0.466196
O     10.43466      8.50569      3.58206        -0.033834      0.620196      0.177928
O     10.54374      8.50569     17.39634        -0.093935      0.815170     -0.181356
O     10.54374     12.47271      3.58206         0.109276     -0.959081      0.166047
O     10.43466     12.47271     17.39634         0.037843     -0.577622     -0.108836
O      8.50569      3.58206     10.43466         0.584927      0.149608     -0.052229
O      8.50569     17.39634     10.54374         0.590656     -0.165047      0.013861
O     12.47271      3.58206     10.54374        -0.733712      0.141014      0.008333
O     12.47271     17.39634     10.43466        -0.505497     -0.122270     -0.031315
O     11.90042     11.90042     19.56718        -0.327698     -0.268415      0.243443
O     19.56718     19.56718     19.56718         0.295838      0.323417      0.208016
O     19.56718     11.90042     11.90042         0.346251     -0.277572     -0.250745
O     11.90042     19.56718     11.90042        -0.280177      0.352731     -0.231572
O      9.45224      1.03696      9.45224        -0.028756      0.099403     -0.133216
O      1.03696      9.45224      9.45224         0.057284     -0.020971     -0.121306
O      1.03696      1.03696      1.03696         0.062969      0.100880      0.096325
O      9.45224      9.45224      1.03696        -0.040830     -0.028529      0.085446
Zr     10.48920      2.52580     10.48920        -0.084966     -0.244301      0.145260
Zr     10.48920     18.45260     10.48920         0.032608      0.057603      0.100171
Zr     10.48920     10.48920      2.52580        -0.321939     -0.289792     -0.383376
Zr     10.48920     10.48920     18.45260         0.184146     -0.023491      0.390463
Zr      2.52580     10.48920     10.48920        -0.142692     -0.040262     -0.070492
Zr     18.45260     10.48920     10.48920         0.130522     -0.042807      0.139604
Pd     12.75679      8.34593      9.77920         0.040487      0.001171      0.007763
Pd      6.67232      9.59383     10.44727        -0.085385     -0.030258     -0.029220
Pd      6.91921     11.75840     11.88363         0.008520     -0.012349     -0.029726
Pd     12.27803     13.50381      7.22745         0.002202     -0.013638      0.015924
Pd     12.08765      7.92889      7.14908         0.015649     -0.014926      0.020164
Pd      8.50526      7.32048      6.89948         0.016212      0.004875      0.017675
Pd     11.46942     11.47319      5.65939         0.002779      0.001382      0.015961
Pd     14.48852      8.90047      7.83301         0.005709     -0.030766     -0.008886
Pd      9.82404     11.79851      7.91614         0.021012     -0.004481     -0.001272
Pd      7.08503      7.15675     11.97975        -0.028688     -0.011282     -0.015955
Pd      6.46183      7.56568      8.49785        -0.028706      0.002693     -0.013896
Pd      7.32694      9.26729     13.44043        -0.034072     -0.010433      0.020134
Pd     11.42503      6.12389      9.20710         0.011576      0.036552      0.031333
Pd      9.94774      9.55925      6.40548         0.004836     -0.004615     -0.000423
Pd      9.10800     13.98714      9.36808         0.020527     -0.030093     -0.018821
Pd     10.93156      7.24155     11.53279         0.007229      0.036013     -0.013823
Pd     10.35466      9.08981      9.09150         0.001576     -0.025172      0.003572
Pd      9.35953     11.52105     10.53187        -0.017042      0.000473      0.001659
Pd      8.92528      7.03936      9.59291        -0.039312      0.058865     -0.034387
Pd      9.09461      7.30939     13.62932         0.031909      0.024028     -0.021685
Pd      9.02477      9.08119     11.40687        -0.034605      0.048402      0.014558
Pd     12.27531     10.60856      8.04790        -0.025851     -0.008971     -0.022537
Pd      7.16712     12.02135      9.16721        -0.023501     -0.019890      0.008968
Pd      8.04873      9.70770      8.22743         0.034065      0.013258      0.022152
Pd     14.04383      6.38682      8.50372        -0.010319     -0.062363      0.006072
Pd     13.31667      8.44595     12.30424        -0.010599     -0.012865      0.037614
Pd      9.12661     11.36065     13.24436         0.015922      0.018384      0.009992
Pd     14.01755     12.39004      8.82540         0.014751     -0.038902      0.007664
Pd     13.17821     11.03991     13.08542        -0.011740     -0.032589     -0.015455
Pd     14.40462     10.34406     10.51243         0.007844     -0.033938      0.049288
Pd     11.78964     10.59169     10.82256         0.009940      0.016730     -0.024095
Pd     11.54341     13.06321      9.71230         0.012195      0.007531      0.010580
Pd     13.65945     12.97319     11.48420        -0.011323     -0.012549      0.015156
Pd     11.19049     12.75260     12.35295         0.013332     -0.001506      0.001891
Pd     11.25599     11.53212     14.84559        -0.000376      0.016694     -0.004985
Pd     11.01366      9.42669     13.13259         0.041549      0.012511     -0.011469
Pd      9.45616      9.55901     15.27691         0.017507     -0.007843     -0.010117
Pd      8.78990     13.77240     12.02747        -0.012048     -0.005784     -0.007067
