152
# total energy = -1022.32943168 eVH     10.35389      5.87395      7.64558         0.406045     -0.093623      1.102184
H     10.62451     15.10445      7.64558         0.045215     -0.102245      0.584240
H     10.62451      5.87395     13.33282         0.132987      0.107376     -0.642373
H     10.35389     15.10445     13.33282        -0.246900     -0.065705     -0.559268
H      7.64558     10.35389      5.87395         0.427800     -0.049989      0.170090
H      7.64558     10.62451     15.10445         0.632268     -0.107461     -0.081484
H     13.33282     10.62451      5.87395        -1.045882     -0.463924     -0.115497
H     13.33282     10.35389     15.10445        -0.471810     -0.052889     -0.049452
H      5.87395      7.64558     10.35389         0.007145      1.278466     -0.094517
H     15.10445      7.64558     10.62451        -0.164865      0.393574     -0.075934
H      5.87395     13.33282     10.62451         0.145859     -0.385243     -0.065050
H     15.10445     13.33282     10.35389        -0.072953     -1.016299     -0.345254
H      5.87395     10.35389      7.64558         0.114771     -0.023238      0.388719
H     15.10445     10.62451      7.64558         0.071925     -0.025038      0.832522
H      5.87395     10.62451     13.33282         0.259056     -0.069831     -0.429329
H     15.10445     10.35389     13.33282        -0.203150      0.067513     -0.612709
H     10.35389      7.64558      5.87395         0.200488      0.976730     -0.003998
H     10.62451      7.64558     15.10445        -0.020211      0.761432     -0.086278
H     10.62451     13.33282      5.87395         0.420916     -0.458383      0.212917
H     10.35389     13.33282     15.10445        -0.139951     -0.964393     -0.123837
H      7.64558      5.87395     10.35389         0.451091      0.072379     -0.145303
H      7.64558     15.10445     10.62451         0.906434     -0.203907      0.164069
H     13.33282      5.87395     10.62451        -0.431208      0.196263     -0.061286
H     13.33282     15.10445     10.35389        -1.007685     -0.044211      0.266816
H     12.45634     12.45634     19.01126         0.273919      0.258725     -0.217603
H     19.01126     19.01126     19.01126        -0.251084     -0.236056     -0.261184
H     19.01126     12.45634     12.45634        -0.243374      0.276091      0.233614
H     12.45634     19.01126     12.45634         0.205869     -0.285110      0.258912
C     10.35284      5.61067      6.59456        -0.039063     -0.506525     -0.871616
C     10.62556     15.36773      6.59456         0.031762      0.334733     -0.831048
C     10.62556      5.61067     14.38384        -0.013122     -0.290924      0.747972
C     10.35284     15.36773     14.38384         0.226553      0.684681      0.073530
C      6.59456     10.35284      5.61067        -0.699054     -0.029319     -0.281294
C      6.59456     10.62556     15.36773        -0.936941      0.114091      0.428485
C     14.38384     10.62556      5.61067         1.129449      0.269673     -0.281782
C     14.38384     10.35284     15.36773         0.755055     -0.105165      0.421262
C      5.61067      6.59456     10.35284        -0.364325     -0.944072      0.217112
C     15.36773      6.59456     10.62556         0.187751     -0.471434      0.039987
C      5.61067     14.38384     10.62556        -0.235130      0.382313     -0.003701
C     15.36773     14.38384     10.35284         0.303011      0.429156      0.257666
C      5.61067     10.35284      6.59456        -0.356506      0.017435     -0.795148
C     15.36773     10.62556      6.59456         0.543447     -0.184025     -1.193148
C      5.61067     10.62556     14.38384        -0.505990      0.015082      1.133368
C     15.36773     10.35284     14.38384         0.550170     -0.206842      1.391793
C     10.35284      6.59456      5.61067         0.009649     -1.241926     -0.732769
C     10.62556      6.59456     15.36773         0.067895     -0.987533      0.398667
C     10.62556     14.38384      5.61067        -0.060200      1.389613     -0.693824
C     10.35284     14.38384     15.36773         0.043307      0.695980      0.531572
C      6.59456      5.61067     10.35284         0.029175     -0.883491      0.136244
C      6.59456     15.36773     10.62556        -1.685138      0.484199      0.082608
C     14.38384      5.61067     10.62556         0.556948     -0.225808      0.010378
C     14.38384     15.36773     10.35284         0.584422      0.506236     -0.230591
C     10.40319      3.19606      7.29314         0.019877      0.996075     -0.232862
C     10.35913      4.25547      6.23373        -0.015829     -0.282630      0.818874
C      0.08601      7.29314      7.29314        -0.011046     -0.226910     -0.462887
C      0.13007      6.23373      6.23373        -0.018724      0.162037      0.164146
C      0.08601      3.19606      3.19606        -0.024210      0.720170      0.139282
C      0.13007      4.25547      4.25547        -0.109823     -0.200991     -0.145971
C     10.40319      7.29314      3.19606        -0.003242     -0.639156      0.471473
C     10.35913      6.23373      4.25547        -0.003721      0.583472     -0.305334
C      7.29314     10.40319      3.19606        -0.415246      0.016983      0.974367
C      6.23373     10.35913      4.25547         0.257112     -0.019261     -0.202753
C      7.29314      0.08601      7.29314        -0.308517     -0.055946     -0.246807
C      6.23373      0.13007      6.23373         0.324137     -0.106387      0.232469
C      3.19606      0.08601      3.19606         0.313706     -0.060912      1.394091
C      4.25547      0.13007      4.25547        -0.241948     -0.016321     -0.439492
C      3.19606     10.40319      7.29314         0.762928      0.018622     -0.252248
C      4.25547     10.35913      6.23373        -0.111028      0.039846      0.123347
C      3.19606      7.29314     10.40319         0.503544     -1.222090      0.041668
C      4.25547      6.23373     10.35913        -0.773596      0.672690      0.021153
C      7.29314      7.29314      0.08601        -0.650443     -0.216719     -0.020888
C      6.23373      6.23373      0.13007         0.179872      0.247503     -0.007948
C      3.19606      3.19606      0.08601         0.271813      0.267029     -0.016505
C      4.25547      4.25547      0.13007        -0.056227     -0.038045      0.005466
C      7.29314      3.19606     10.40319        -0.327282      0.689902      0.031751
C      6.23373      4.25547     10.35913         0.657235     -0.245812      0.028148
O     10.43466      3.58206      8.50569        -0.054061      0.027620      0.278809
O     10.54374     17.39634      8.50569        -0.022412     -0.196916      0.618419
O     10.54374      3.58206     12.47271         0.070442      0.043538     -0.280446
O     10.43466     17.39634     12.47271        -0.024273     -0.129385     -0.548724
O      8.50569     10.43466      3.58206         0.375249     -0.005654     -0.024328
O      8.50569     10.54374     17.39634         0.463854      0.058953     -0.142282
O     12.47271     10.54374      3.58206        -0.199257      0.072227     -0.128251
O     12.47271     10.43466     17.39634        -0.852899      0.027649     -0.208038
O      3.58206      8.50569     10.43466         0.037056      0.875346      0.040007
O     17.39634      8.50569     10.54374        -0.023223      0.369271      0.080540
O      3.58206     12.47271     10.54374         0.054938     -0.434449      0.059868
O     17.39634     12.47271     10.43466        -0.151638     -0.702680      0.007523
O      3.58206     10.43466      8.50569        -0.052175     -0.061715      0.222481
O     17.39634     10.54374      8.50569        -0.138485      0.046413      0.441096
O      3.58206     10.54374     12.47271        -0.080614     -0.060461     -0.883418
O     17.39634     10.43466     12.47271        -0.202004      0.050888     -0.803026
O     10.43466      8.50569      3.58206         0.020396      0.666618      0.202673
O     10.54374      8.50569     17.39634         0.057423      0.389795     -0.067980
O     10.54374     12.47271      3.58206        -0.057231     -0.738581      0.249895
O     10.43466     12.47271     17.39634         0.065369     -0.842424     -0.275230
O      8.50569      3.58206     10.43466         0.493566      0.094932     -0.040025
O      8.50569     17.39634     10.54374         0.661619     -0.224724     -0.056856
O     12.47271      3.58206     10.54374        -0.525983      0.158313      0.037918
O     12.47271     17.39634     10.43466        -0.457251     -0.025577     -0.047577
O     11.90042     11.90042     19.56718        -0.310630     -0.310970      0.255766
O     19.56718     19.56718     19.56718         0.293759      0.276424      0.320504
O     19.56718     11.90042     11.90042         0.277715     -0.332386     -0.226597
O     11.90042     19.56718     11.90042        -0.220393      0.295640     -0.243085
O      9.45224      1.03696      9.45224        -0.069095      0.062466     -0.068588
O      1.03696      9.45224      9.45224         0.070306     -0.142678     -0.052486
O      1.03696      1.03696      1.03696         0.043248      0.029563      0.192139
O      9.45224      9.45224      1.03696        -0.035634     -0.084569      0.140526
Zr     10.48920      2.52580     10.48920         0.000792     -0.066210     -0.026341
Zr     10.48920     18.45260     10.48920         0.027119      0.283477     -0.059185
Zr     10.48920     10.48920      2.52580        -0.044476     -0.042107     -0.366152
Zr     10.48920     10.48920     18.45260        -0.160543     -0.209606      0.300698
Zr      2.52580     10.48920     10.48920        -0.326727      0.355342     -0.490828
Zr     18.45260     10.48920     10.48920         0.214007      0.042143     -0.334817
Pd      9.01686     10.26387     13.53303         0.036855      0.030762     -0.053511
Pd     10.63143      9.73380     11.34276         0.001411     -0.006394     -0.110364
Pd     13.76866      8.51971     12.84361         0.009066      0.014585     -0.019536
Pd     11.02347     11.15997     15.12068        -0.000299     -0.023153     -0.010650
Pd     12.80265     11.12266     13.03271         0.024172      0.025774      0.022080
Pd     15.03984     10.74351     11.40138        -0.052922      0.040734     -0.030320
Pd      6.65795      7.39700     12.31248         0.024415      0.006962     -0.000244
Pd      9.36086      7.42331     10.26372        -0.033345     -0.047667     -0.004521
Pd      9.22167      7.63563     12.94470         0.011175      0.014633     -0.028018
Pd     11.72250      7.27370     11.67560         0.018472     -0.001183     -0.043138
Pd     11.63825      7.69230      8.97539        -0.066101      0.093275     -0.027001
Pd      7.19501     11.84977     12.10293         0.020402     -0.008457     -0.014893
Pd      8.96888     14.65533      9.33583        -0.026442     -0.031700     -0.014630
Pd      8.46725     12.76581     14.35261        -0.026319     -0.029772     -0.005008
Pd     13.12849     13.93065      8.72642         0.064966     -0.014624     -0.007851
Pd     10.73489     12.98670      8.43891        -0.015604      0.090306      0.023905
Pd     14.07107     11.42241      9.06864        -0.005708     -0.002009     -0.040295
Pd      8.67733     14.09469     12.05152        -0.039403     -0.008080      0.024157
Pd     12.22698     13.73065     13.95609         0.001512      0.012330      0.009403
Pd     11.19736     14.33523     11.01449        -0.046433      0.034646      0.026899
Pd     14.03023     13.36830     12.09782         0.014026      0.038660      0.019109
Pd     12.19340     12.00615     10.65820         0.042520      0.035856     -0.018873
Pd     12.45009     11.82741      6.95575         0.018713      0.122141     -0.091448
Pd     13.58739      9.06404      7.86206        -0.064238     -0.103634      0.032979
Pd      7.00893      8.36094      9.00423        -0.002176      0.082969     -0.060538
Pd      5.50322      9.86959     11.36577         0.019124     -0.017636      0.000541
Pd      8.80388      9.99019      7.92544         0.122612     -0.113730      0.174687
Pd      9.16661      7.46602      7.61636        -0.080574      0.009811      0.006126
Pd      9.35581     11.96447     10.45727         0.042008      0.032992     -0.011637
Pd     11.21807     10.33413      8.86992        -0.007097      0.025510     -0.094738
Pd     11.07293      9.36894      6.47081        -0.001236      0.012459      0.008358
Pd      9.67366     11.77448      6.21492        -0.008468     -0.017353     -0.014819
Ir     11.36757      9.05636     13.64383         0.024761      0.002046     -0.008505
Ir     13.05521      9.35809     10.47544        -0.009440     -0.026218     -0.018353
Ir     10.51034     12.31465     12.69783        -0.016345      0.026039      0.022853
Ir      7.02300     10.95950      9.61918         0.035885     -0.021483     -0.033820
Ir      8.13963     12.48936      8.20658         0.019006      0.035177      0.038951
Ir      8.07868      9.37417     11.24014        -0.011986     -0.000381     -0.033931
