152
# total energy = -1005.66636925 eVH     10.35389      5.87395      7.64558         0.157796      0.101071      0.563129
H     10.62451     15.10445      7.64558        -0.113920     -0.149062      0.495291
H     10.62451      5.87395     13.33282         0.586572      0.094249     -0.773709
H     10.35389     15.10445     13.33282         0.032557     -0.161887     -0.421285
H      7.64558     10.35389      5.87395         0.353262      0.036074      0.165963
H      7.64558     10.62451     15.10445         0.845962      0.496111     -0.018755
H     13.33282     10.62451      5.87395        -0.445046      0.344760      0.116085
H     13.33282     10.35389     15.10445        -0.852255     -0.072441      0.016012
H      5.87395      7.64558     10.35389         0.305929      1.174141      0.036798
H     15.10445      7.64558     10.62451        -0.106137      0.483657      0.289058
H      5.87395     13.33282     10.62451         0.188796     -0.640500     -0.002169
H     15.10445     13.33282     10.35389        -0.072227     -0.956415     -0.208489
H      5.87395     10.35389      7.64558         0.208786      0.045139      0.447613
H     15.10445     10.62451      7.64558        -0.139411      0.500198      0.780158
H      5.87395     10.62451     13.33282         0.105303      0.367161     -0.906906
H     15.10445     10.35389     13.33282        -0.072674     -0.035534     -0.658813
H     10.35389      7.64558      5.87395         0.337346      1.140614      0.055208
H     10.62451      7.64558     15.10445         0.712908      0.658691     -0.198780
H     10.62451     13.33282      5.87395        -0.399233     -0.800002      0.262972
H     10.35389     13.33282     15.10445        -0.092725     -0.468053     -0.283299
H      7.64558      5.87395     10.35389         0.890359      0.051445     -0.230427
H      7.64558     15.10445     10.62451         0.810607     -0.181959      0.019882
H     13.33282      5.87395     10.62451        -0.737801      0.176714      0.528000
H     13.33282     15.10445     10.35389        -0.379930     -0.116821     -0.098317
H     12.45634     12.45634     19.01126         0.245080      0.270423     -0.234194
H     19.01126     19.01126     19.01126        -0.271223     -0.247737     -0.245101
H     19.01126     12.45634     12.45634        -0.275571      0.264041      0.221741
H     12.45634     19.01126     12.45634         0.235873     -0.263386      0.272102
C     10.35284      5.61067      6.59456        -0.325624     -0.711220     -0.062784
C     10.62556     15.36773      6.59456         0.075221      0.357183     -0.253308
C     10.62556      5.61067     14.38384        -0.155555     -0.507164      0.078619
C     10.35284     15.36773     14.38384         0.013627      0.205473      0.381607
C      6.59456     10.35284      5.61067        -0.384208      0.011936     -0.256480
C      6.59456     10.62556     15.36773        -0.539338      0.019370      0.623362
C     14.38384     10.62556      5.61067        -0.240576     -0.468357     -0.655768
C     14.38384     10.35284     15.36773         1.037905     -0.087090      0.180526
C      5.61067      6.59456     10.35284        -0.705280     -0.198022     -0.359153
C     15.36773      6.59456     10.62556         0.547565      0.004974     -0.315400
C      5.61067     14.38384     10.62556        -0.266688      0.769954     -0.002206
C     15.36773     14.38384     10.35284         0.297090      0.964224      0.034562
C      5.61067     10.35284      6.59456        -0.287167     -0.007646     -0.744937
C     15.36773     10.62556      6.59456         0.483123     -0.272697      0.182381
C      5.61067     10.62556     14.38384        -0.623618     -0.107631      0.263513
C     15.36773     10.35284     14.38384         0.428624     -0.039136      1.021323
C     10.35284      6.59456      5.61067        -0.167816     -0.731728     -0.564985
C     10.62556      6.59456     15.36773        -0.110911     -0.314297      0.597524
C     10.62556     14.38384      5.61067         0.205236      1.109856     -0.366462
C     10.35284     14.38384     15.36773        -0.003213      0.809536      0.389334
C      6.59456      5.61067     10.35284         0.028233     -1.059958      0.206116
C      6.59456     15.36773     10.62556        -0.979346      0.230188      0.083994
C     14.38384      5.61067     10.62556         0.332887     -0.543863     -0.369769
C     14.38384     15.36773     10.35284         0.145764      0.401366     -0.076619
C     10.40319      3.19606      7.29314         0.007038      0.832986     -0.462576
C     10.35913      4.25547      6.23373         0.069254     -0.557935      0.092546
C      0.08601      7.29314      7.29314        -0.046147     -0.709321     -0.256570
C      0.13007      6.23373      6.23373        -0.038788      0.160888      0.509004
C      0.08601      3.19606      3.19606         0.014660      1.408666      0.272016
C      0.13007      4.25547      4.25547         0.030328     -0.686200     -0.215811
C     10.40319      7.29314      3.19606         0.005210     -0.330813      0.272678
C     10.35913      6.23373      4.25547         0.027299      0.030344     -0.729954
C      7.29314     10.40319      3.19606        -0.251075      0.017967      0.552299
C      6.23373     10.35913      4.25547         0.147182      0.046667     -0.063646
C      7.29314      0.08601      7.29314        -0.736782     -0.075310     -0.316857
C      6.23373      0.13007      6.23373         0.776096     -0.145860      0.431831
C      3.19606      0.08601      3.19606         0.958964     -0.020531      0.585891
C      4.25547      0.13007      4.25547        -0.555188     -0.072867     -0.606821
C      3.19606     10.40319      7.29314         0.528437     -0.008703     -0.755068
C      4.25547     10.35913      6.23373        -0.275334      0.068679      0.213628
C      3.19606      7.29314     10.40319         0.284948     -1.278082      0.031735
C      4.25547      6.23373     10.35913        -1.028401      0.021167      0.112585
C      7.29314      7.29314      0.08601        -0.429978     -0.413385     -0.016207
C      6.23373      6.23373      0.13007         0.512707      0.236783      0.007821
C      3.19606      3.19606      0.08601         0.455157      0.371044     -0.035985
C      4.25547      4.25547      0.13007        -0.134612     -0.599508     -0.041934
C      7.29314      3.19606     10.40319        -0.369248      0.430982      0.057175
C      6.23373      4.25547     10.35913         0.261631     -0.733897      0.135556
O     10.43466      3.58206      8.50569        -0.012999      0.062293      0.458725
O     10.54374     17.39634      8.50569         0.058872     -0.104663      0.391292
O     10.54374      3.58206     12.47271         0.029077     -0.120790     -0.153754
O     10.43466     17.39634     12.47271        -0.030049     -0.171244     -0.518716
O      8.50569     10.43466      3.58206         0.266784     -0.022406      0.009626
O      8.50569     10.54374     17.39634         0.734815     -0.025876     -0.171232
O     12.47271     10.54374      3.58206        -0.821107      0.098956      0.087565
O     12.47271     10.43466     17.39634        -0.470815      0.032867     -0.082109
O      3.58206      8.50569     10.43466         0.161157      1.060725     -0.028261
O     17.39634      8.50569     10.54374        -0.158378      0.576335      0.070587
O      3.58206     12.47271     10.54374         0.103637     -0.432804      0.044336
O     17.39634     12.47271     10.43466        -0.147534     -0.539846     -0.029496
O      3.58206     10.43466      8.50569         0.077504     -0.087874      0.613571
O     17.39634     10.54374      8.50569        -0.055754      0.087119      0.452166
O      3.58206     10.54374     12.47271         0.002182      0.032642     -0.489693
O     17.39634     10.43466     12.47271        -0.236286     -0.044423     -0.654614
O     10.43466      8.50569      3.58206        -0.038372      0.449213      0.140165
O     10.54374      8.50569     17.39634        -0.036279      0.657776     -0.198811
O     10.54374     12.47271      3.58206         0.040621     -1.012744      0.114101
O     10.43466     12.47271     17.39634         0.054139     -0.792487     -0.208100
O      8.50569      3.58206     10.43466         0.559910      0.155516     -0.055891
O      8.50569     17.39634     10.54374         0.519258     -0.183604      0.004097
O     12.47271      3.58206     10.54374        -0.606263      0.196532      0.002203
O     12.47271     17.39634     10.43466        -0.245616      0.063665     -0.044227
O     11.90042     11.90042     19.56718        -0.258798     -0.301536      0.233941
O     19.56718     19.56718     19.56718         0.322509      0.296361      0.263326
O     19.56718     11.90042     11.90042         0.313371     -0.261391     -0.236865
O     11.90042     19.56718     11.90042        -0.237067      0.302299     -0.324547
O      9.45224      1.03696      9.45224         0.000745      0.076132     -0.118291
O      1.03696      9.45224      9.45224         0.089402     -0.071959     -0.156846
O      1.03696      1.03696      1.03696         0.112761      0.170796      0.031443
O      9.45224      9.45224      1.03696        -0.096124     -0.110903      0.018662
Zr     10.48920      2.52580     10.48920        -0.102139     -0.234924     -0.012379
Zr     10.48920     18.45260     10.48920        -0.096669      0.187630      0.147119
Zr     10.48920     10.48920      2.52580        -0.114686     -0.432143     -0.219059
Zr     10.48920     10.48920     18.45260        -0.187155     -0.027345      0.401364
Zr      2.52580     10.48920     10.48920        -0.353402      0.263867      0.273938
Zr     18.45260     10.48920     10.48920         0.173691      0.006090     -0.133512
Pd     13.62692      8.94636      9.16472        -0.013161     -0.000677      0.019659
Pd      5.70571      9.77047     10.03681        -0.019625      0.032329      0.000362
Pd      6.80430     11.57960     11.69731        -0.006868      0.029984     -0.026443
Pd     12.19319     13.09860      7.32946        -0.007184      0.003169      0.006331
Pd     12.06042      7.86477      7.24479        -0.027788     -0.005012      0.030506
Pd      8.29245      7.05067      6.57243        -0.000639     -0.005510      0.007242
Pd     10.89618     11.27564      5.57767        -0.007253     -0.007384      0.010941
Pd     14.60795      8.53143      6.71920        -0.022705     -0.000260      0.013344
Pd      9.65445     11.79912      7.99495        -0.006719     -0.002574      0.008032
Pd      6.76538      6.78208     12.27923         0.074343      0.037670      0.001279
Pd      6.37641      7.61011      8.26887         0.000164      0.007248      0.002839
Pd      6.89226      8.73059     14.02146        -0.035886     -0.021240      0.041490
Pd     11.58251      6.53825      9.56539        -0.022344     -0.010073      0.019417
Pd      9.73055      9.29351      6.91101        -0.014037     -0.000478      0.027891
Pd      9.01616     13.96504      9.39435         0.005009      0.006351     -0.006486
Pd      9.86429      7.17413     11.61153        -0.113710      0.033055      0.036734
Pd     10.51622      8.97436      9.57365         0.005849     -0.013107      0.022325
Pd      9.33891     11.32022     10.60028        -0.012140      0.034381     -0.002598
Pd      8.87211      7.01018      9.14425         0.011132     -0.019254     -0.002564
Pd      8.70271      6.77865     14.01496        -0.020982      0.007149      0.044979
Pd      7.94200      9.07815     11.53165        -0.069375      0.073168      0.117476
Pd     11.96578     10.50208      7.83578         0.000656     -0.004261      0.002150
Pd      7.13417     12.05626      9.10130         0.005302     -0.014102     -0.010461
Pd      8.03188      9.58781      8.85361        -0.001819      0.004502      0.076832
Pd     14.12396      6.48602      8.46107        -0.013395     -0.007218      0.011153
Pd     12.50600      8.25166     11.48678        -0.022617      0.007578      0.016209
Pd      8.77955     11.39381     13.41649        -0.010077      0.031854     -0.011783
Pd     13.90485     11.92820      9.03480         0.002760     -0.001202     -0.006186
Pd     12.87796     10.57863     13.09203         0.000042      0.007404     -0.009435
Pd     14.73810     10.34063     11.14025         0.006090      0.004736     -0.007542
Pd     12.06072     10.74335     10.58381         0.016138      0.017666     -0.017073
Pd     11.44723     13.15799      9.85742         0.007060      0.022298      0.003475
Pd     13.56457     12.82495     11.66388         0.005229      0.008748      0.003016
Pd     11.04099     12.52999     12.44465         0.002021      0.014682      0.001935
Pd     11.06224     11.32846     14.87478        -0.029239     -0.024034     -0.024797
Pd     10.46558      9.59058     12.51576        -0.003215      0.016668     -0.032021
Pd      9.40746      9.26388     14.87869        -0.069385     -0.035263     -0.061183
Pd      8.67149     13.59812     11.99784         0.015149      0.033454     -0.006964
