36
# total energy = -265.53010511 eVH      5.49302      0.00000      7.50000         0.030631      0.000000      0.000000
H     10.62468      0.00000      7.50000        -0.030631     -0.000000      0.000000
H      0.00000      5.49302      7.50000         0.000000      0.030631     -0.000000
H      0.00000     10.62468      7.50000        -0.000000     -0.030631      0.000000
C      8.79262     14.93485      7.50000         0.008212      0.000020      0.000000
C      7.32508      1.18285      7.50000        -0.008212     -0.000020      0.000000
C      1.18285      8.79262      7.50000        -0.000020      0.008212     -0.000000
C     14.93485      7.32508      7.50000         0.000020     -0.008212     -0.000000
C      7.32508     14.93485      7.50000        -0.008212      0.000020     -0.000000
C      8.79262      1.18285      7.50000         0.008212     -0.000020     -0.000000
C     14.93485      8.79262      7.50000         0.000020      0.008212      0.000000
C      1.18285      7.32508      7.50000        -0.000020     -0.008212      0.000000
C      9.53469      0.00000      7.50000        -0.002612      0.000000      0.000000
C      6.58301     -0.00000      7.50000         0.002612     -0.000000      0.000000
C      0.00000      9.53469      7.50000         0.000000     -0.002612      0.000000
C      0.00000      6.58301      7.50000         0.000000      0.002612      0.000000
C      8.05885      7.00753      7.50000         0.000000     -0.037585      0.000000
C      8.05885      9.11017      7.50000        -0.000000      0.037585      0.000000
C      9.11017      8.05885      7.50000         0.037585      0.000000      0.000000
C      7.00753      8.05885      7.50000        -0.037585      0.000000      0.000000
N      5.72822      8.05885      7.50000        -0.010098     -0.000000      0.000000
N     10.38948      8.05885      7.50000         0.010098     -0.000000      0.000000
N      8.05885      5.72822      7.50000         0.000000     -0.010098      0.000000
N      8.05885     10.38948      7.50000         0.000000      0.010098      0.000000
O      6.80956      2.38640      7.50000        -0.007508     -0.003413     -0.000000
O      9.30814     13.73130      7.50000         0.007508      0.003413      0.000000
O     13.73130      6.80956      7.50000         0.003413     -0.007508      0.000000
O      2.38640      9.30814      7.50000        -0.003413      0.007508     -0.000000
O      9.30814      2.38640      7.50000         0.007508     -0.003413      0.000000
O      6.80956     13.73130      7.50000        -0.007508      0.003413     -0.000000
O      2.38640      6.80956      7.50000        -0.003413     -0.007508     -0.000000
O     13.73130      9.30814      7.50000         0.003413      0.007508      0.000000
Ir      3.95409      8.05885      7.50000         0.004105     -0.000000      0.000000
Ir     12.16361      8.05885      7.50000        -0.004105     -0.000000      0.000000
Ir      8.05885      3.95409      7.50000         0.000000      0.004105      0.000000
Ir      8.05885     12.16361      7.50000        -0.000000     -0.004105      0.000000
