152
# total energy = -1005.99496306 eVH     10.35389      5.87395      7.64558         0.257833      0.037065      0.635337
H     10.62451     15.10445      7.64558        -0.107457     -0.142792      0.519004
H     10.62451      5.87395     13.33282         0.485393      0.121209     -0.583984
H     10.35389     15.10445     13.33282         0.074100     -0.184220     -0.550362
H      7.64558     10.35389      5.87395         0.371283      0.066717      0.168800
H      7.64558     10.62451     15.10445         0.693922      0.472040     -0.041044
H     13.33282     10.62451      5.87395        -0.530684      0.418897      0.076583
H     13.33282     10.35389     15.10445        -0.803791     -0.095542      0.008581
H      5.87395      7.64558     10.35389         0.244836      0.724487     -0.362293
H     15.10445      7.64558     10.62451        -0.094945      0.482780      0.285003
H      5.87395     13.33282     10.62451         0.158698     -0.697640     -0.157850
H     15.10445     13.33282     10.35389        -0.008208     -1.032545     -0.327183
H      5.87395     10.35389      7.64558         0.256305      0.239052      0.688726
H     15.10445     10.62451      7.64558        -0.109600      0.406069      0.763594
H      5.87395     10.62451     13.33282         0.137473      0.329995     -0.693651
H     15.10445     10.35389     13.33282        -0.049537     -0.074521     -0.693668
H     10.35389      7.64558      5.87395         0.383847      1.048273     -0.007072
H     10.62451      7.64558     15.10445         0.535588      0.536098     -0.119896
H     10.62451     13.33282      5.87395        -0.397574     -0.840610      0.188523
H     10.35389     13.33282     15.10445        -0.044144     -0.433589     -0.217157
H      7.64558      5.87395     10.35389         0.848486      0.093439     -0.291142
H      7.64558     15.10445     10.62451         0.834553     -0.198558      0.007085
H     13.33282      5.87395     10.62451        -0.801158      0.193679      0.587826
H     13.33282     15.10445     10.35389        -0.444137     -0.109551     -0.133401
H     12.45634     12.45634     19.01126         0.235462      0.270429     -0.239705
H     19.01126     19.01126     19.01126        -0.262453     -0.240685     -0.261210
H     19.01126     12.45634     12.45634        -0.266784      0.268667      0.219044
H     12.45634     19.01126     12.45634         0.232136     -0.256058      0.278054
C     10.35284      5.61067      6.59456        -0.433637     -0.714739      0.178900
C     10.62556     15.36773      6.59456         0.063634      0.366490     -0.300678
C     10.62556      5.61067     14.38384        -0.332736     -0.366008     -0.302281
C     10.35284     15.36773     14.38384        -0.008120      0.336860      0.538991
C      6.59456     10.35284      5.61067        -0.243321     -0.004170     -0.369819
C      6.59456     10.62556     15.36773        -0.260112     -0.218940      0.806883
C     14.38384     10.62556      5.61067        -0.264793     -0.399993     -0.518357
C     14.38384     10.35284     15.36773         0.976667     -0.058250      0.253524
C      5.61067      6.59456     10.35284        -0.539053     -0.005055      0.133062
C     15.36773      6.59456     10.62556         0.527811      0.021523     -0.250713
C      5.61067     14.38384     10.62556        -0.334849      0.974796      0.077623
C     15.36773     14.38384     10.35284         0.313777      1.039336      0.050888
C      5.61067     10.35284      6.59456        -0.182321     -0.280874     -0.612365
C     15.36773     10.62556      6.59456         0.445864     -0.284550      0.116253
C      5.61067     10.62556     14.38384        -0.718629     -0.350703     -0.068274
C     15.36773     10.35284     14.38384         0.385619     -0.063275      1.018898
C     10.35284      6.59456      5.61067        -0.211795     -0.231795     -0.652898
C     10.62556      6.59456     15.36773        -0.267724      0.127406      0.448918
C     10.62556     14.38384      5.61067         0.202397      1.061494     -0.347387
C     10.35284     14.38384     15.36773         0.022338      0.541416      0.438794
C      6.59456      5.61067     10.35284        -0.164336     -0.672708      0.241679
C      6.59456     15.36773     10.62556        -1.017036      0.296463      0.079442
C     14.38384      5.61067     10.62556         0.494232     -0.548738     -0.365517
C     14.38384     15.36773     10.35284         0.214431      0.457325     -0.101955
C     10.40319      3.19606      7.29314         0.010006      0.688155     -0.482268
C     10.35913      4.25547      6.23373         0.085500     -0.723159     -0.018916
C      0.08601      7.29314      7.29314        -0.044012     -0.409372     -0.311343
C      0.13007      6.23373      6.23373        -0.023121      0.084268      0.569710
C      0.08601      3.19606      3.19606        -0.015688      1.255979      0.281776
C      0.13007      4.25547      4.25547         0.049435     -0.776244     -0.153520
C     10.40319      7.29314      3.19606         0.010556     -0.335854      0.344106
C     10.35913      6.23373      4.25547         0.026739      0.008702     -0.872614
C      7.29314     10.40319      3.19606        -0.341561      0.021395      0.566577
C      6.23373     10.35913      4.25547         0.206672      0.059525     -0.106382
C      7.29314      0.08601      7.29314        -0.522414     -0.064595     -0.373792
C      6.23373      0.13007      6.23373         0.681371     -0.049941      0.486082
C      3.19606      0.08601      3.19606         0.693647     -0.036098      0.568426
C      4.25547      0.13007      4.25547        -0.576537     -0.082359     -0.551765
C      3.19606     10.40319      7.29314         0.481255     -0.016889     -0.771905
C      4.25547     10.35913      6.23373        -0.457989      0.039640      0.200544
C      3.19606      7.29314     10.40319         0.288594     -1.267716      0.041508
C      4.25547      6.23373     10.35913        -0.728051      0.104567      0.153610
C      7.29314      7.29314      0.08601        -0.407894     -0.371845     -0.027700
C      6.23373      6.23373      0.13007         0.468756      0.213593     -0.019559
C      3.19606      3.19606      0.08601         0.495369      0.373126     -0.039784
C      4.25547      4.25547      0.13007        -0.153216     -0.649035     -0.034437
C      7.29314      3.19606     10.40319        -0.323094      0.428298      0.075956
C      6.23373      4.25547     10.35913         0.267205     -0.689530      0.140177
O     10.43466      3.58206      8.50569        -0.016328      0.103007      0.504099
O     10.54374     17.39634      8.50569         0.036485     -0.174976      0.484412
O     10.54374      3.58206     12.47271         0.056140     -0.084963     -0.186831
O     10.43466     17.39634     12.47271        -0.038497     -0.182988     -0.557386
O      8.50569     10.43466      3.58206         0.322400      0.000094      0.031157
O      8.50569     10.54374     17.39634         0.631073      0.033777     -0.144719
O     12.47271     10.54374      3.58206        -0.690726      0.083542      0.093286
O     12.47271     10.43466     17.39634        -0.439066      0.025946     -0.111305
O      3.58206      8.50569     10.43466         0.179367      1.037865     -0.044441
O     17.39634      8.50569     10.54374        -0.161175      0.538879      0.076524
O      3.58206     12.47271     10.54374         0.084790     -0.365148      0.049054
O     17.39634     12.47271     10.43466        -0.157211     -0.546694     -0.022761
O      3.58206     10.43466      8.50569         0.076424     -0.063805      0.590277
O     17.39634     10.54374      8.50569        -0.110493      0.066209      0.522614
O      3.58206     10.54374     12.47271         0.050022      0.050311     -0.528462
O     17.39634     10.43466     12.47271        -0.220735     -0.039364     -0.598404
O     10.43466      8.50569      3.58206        -0.039589      0.464907      0.135128
O     10.54374      8.50569     17.39634         0.049070      0.530162     -0.160158
O     10.54374     12.47271      3.58206        -0.000510     -1.011064      0.205959
O     10.43466     12.47271     17.39634         0.041947     -0.731094     -0.175021
O      8.50569      3.58206     10.43466         0.507312      0.146269     -0.054456
O      8.50569     17.39634     10.54374         0.487425     -0.197707      0.014221
O     12.47271      3.58206     10.54374        -0.637129      0.233415      0.009380
O     12.47271     17.39634     10.43466        -0.215252      0.069709     -0.056376
O     11.90042     11.90042     19.56718        -0.239770     -0.289446      0.247518
O     19.56718     19.56718     19.56718         0.310541      0.295164      0.300752
O     19.56718     11.90042     11.90042         0.290574     -0.264997     -0.233152
O     11.90042     19.56718     11.90042        -0.241928      0.290494     -0.333748
O      9.45224      1.03696      9.45224        -0.020098      0.086997     -0.072833
O      1.03696      9.45224      9.45224         0.091052     -0.092349     -0.137959
O      1.03696      1.03696      1.03696         0.089417      0.189719      0.048950
O      9.45224      9.45224      1.03696        -0.110415     -0.101973      0.032429
Zr     10.48920      2.52580     10.48920        -0.129946     -0.289325     -0.036348
Zr     10.48920     18.45260     10.48920        -0.074687      0.215466      0.088702
Zr     10.48920     10.48920      2.52580         0.047307     -0.406091     -0.253342
Zr     10.48920     10.48920     18.45260        -0.273889     -0.090861      0.323325
Zr      2.52580     10.48920     10.48920        -0.377326      0.241610      0.296270
Zr     18.45260     10.48920     10.48920         0.238836     -0.001974     -0.224679
Pd     13.61038      8.98626      9.20975        -0.003764      0.000866     -0.004132
Pd      5.62786      9.86694     10.13680        -0.000134      0.002282     -0.007944
Pd      6.77290     11.85057     11.70995        -0.001541     -0.000052     -0.000015
Pd     12.06390     12.99984      7.36156        -0.005374     -0.001017      0.000023
Pd     11.87769      7.74192      7.45902        -0.002576     -0.004037     -0.002249
Pd      8.31414      6.84188      6.54717         0.002358     -0.008248     -0.005482
Pd     10.59623     11.16911      5.65219        -0.016445     -0.000708      0.002259
Pd     14.40000      8.54842      6.73390        -0.001332     -0.000331     -0.001769
Pd      9.66760     11.73187      8.13783        -0.001354     -0.004021      0.006573
Pd      6.73743      6.79182     12.33463        -0.003136     -0.002453      0.002035
Pd      6.58424      8.19741      7.94882         0.021073      0.034627     -0.035480
Pd      6.52594      8.49339     14.38017         0.001085     -0.000258      0.002871
Pd     11.48927      6.51852      9.94723        -0.004153     -0.003361      0.002383
Pd      9.47816      9.20042      7.16424        -0.006294     -0.000143      0.003511
Pd      8.97950     13.99169      9.34781        -0.001565     -0.003800      0.010276
Pd      9.44564      7.36901     11.70803        -0.004405     -0.000700     -0.005351
Pd     10.62595      8.96988      9.68131        -0.003914     -0.008070     -0.006137
Pd      9.34040     11.55709     10.72580         0.000961      0.006518      0.006209
Pd      8.87655      7.06585      9.12223        -0.007992      0.006577     -0.004371
Pd      8.55347      6.57887     14.23768         0.000804      0.002784     -0.001979
Pd      7.62932      9.32497     12.01905        -0.003232     -0.002848      0.003671
Pd     11.95045     10.37854      7.72088        -0.004588     -0.001873     -0.008875
Pd      7.12923     12.01595      9.06729        -0.000324     -0.000390     -0.001597
Pd      8.14044      9.62113      9.44501         0.006736     -0.005818      0.006982
Pd     14.01486      6.49911      8.52252        -0.003588      0.000213      0.001153
Pd     12.62764      8.40585     11.57204         0.000224     -0.000759     -0.003220
Pd      8.76326     11.57390     13.41046        -0.000488     -0.001927      0.000679
Pd     13.87941     11.92076      8.96822        -0.003742     -0.003024     -0.000399
Pd     12.94149     10.70330     13.07345        -0.003564     -0.002181     -0.001118
Pd     14.77469     10.43896     11.11677        -0.006640     -0.006389     -0.000959
Pd     12.06155     10.89759     10.53670        -0.003886      0.004648      0.001141
Pd     11.44438     13.34725      9.92750         0.002323      0.004513      0.002194
Pd     13.59753     12.91918     11.62723         0.001425     -0.004292      0.000939
Pd     11.11618     12.62109     12.54178        -0.000216      0.003862      0.001412
Pd     10.94622     11.06327     14.81751        -0.000195      0.002617      0.000351
Pd     10.50538      9.72753     12.38163        -0.001424     -0.003294     -0.002481
Pd      9.08350      9.14172     14.43038         0.000596     -0.000524      0.001097
Pd      8.80895     13.85958     12.04632        -0.006407      0.001781      0.011479
