13
# total energy = -105.61267998 eVC      1.26475      6.80903      0.00000        -0.137650      0.216058      0.000000
C      3.78253      6.80903      0.00000         0.137650      0.216058      0.000000
C      3.78253      1.42348      0.00000         0.137650     -0.216058      0.000000
C      1.26475      1.42348      0.00000        -0.137650     -0.216058      0.000000
C      0.00000      7.52575      0.00000         0.000000     -0.099832      0.000000
C      0.00000      0.70676      0.00000         0.000000      0.099832      0.000000
C      2.52364      7.51949      0.00000         0.000000      0.016453      0.000000
C      2.52364      0.71302      0.00000         0.000000     -0.016453     -0.000000
O      1.19651      2.72101      0.00000         0.142678      0.131716     -0.000000
O      3.85077      2.72101      0.00000        -0.142678      0.131716      0.000000
O      3.85077      5.51150      0.00000        -0.142678     -0.131716      0.000000
O      1.19651      5.51150      0.00000         0.142678     -0.131716     -0.000000
Ir      2.52364      4.11625      0.00000         0.000000      0.000000      0.000000
