152
# total energy = -1060.04399105 eVH     10.35389      5.87395      7.64558        -0.271160      0.009809      1.145428
H     10.62451     15.10445      7.64558         0.065328     -0.087146      0.927462
H     10.62451      5.87395     13.33282        -0.252385      0.083373     -0.792144
H     10.35389     15.10445     13.33282         0.104965     -0.299244     -0.893916
H      7.64558     10.35389      5.87395         0.937827     -0.124752      0.179838
H      7.64558     10.62451     15.10445         0.330242     -0.039832     -0.076700
H     13.33282     10.62451      5.87395        -0.874812      0.217714      0.204682
H     13.33282     10.35389     15.10445        -0.278882     -0.011551     -0.069194
H      5.87395      7.64558     10.35389         0.088519      0.420123     -0.007955
H     15.10445      7.64558     10.62451         0.006152      0.499904     -0.031120
H      5.87395     13.33282     10.62451        -0.018499     -0.954897      0.074697
H     15.10445     13.33282     10.35389        -0.082026     -0.320568      0.003909
H      5.87395     10.35389      7.64558         0.272553      0.119238      0.412042
H     15.10445     10.62451      7.64558        -0.123599     -0.175522      0.658051
H      5.87395     10.62451     13.33282        -0.087194      0.455960     -0.625386
H     15.10445     10.35389     13.33282         0.255602     -0.638921     -0.820374
H     10.35389      7.64558      5.87395        -0.047700      0.476585      0.328661
H     10.62451      7.64558     15.10445         0.220995      0.744764     -0.042711
H     10.62451     13.33282      5.87395         0.128342     -0.572552      0.206043
H     10.35389     13.33282     15.10445         0.037152     -0.284337     -0.139742
H      7.64558      5.87395     10.35389         0.338467      0.095100      0.023448
H      7.64558     15.10445     10.62451         0.375132     -0.116724      0.156399
H     13.33282      5.87395     10.62451        -0.316350      0.129362     -0.034847
H     13.33282     15.10445     10.35389        -0.653382     -0.131169      0.146405
H     12.45634     12.45634     19.01126         0.254900      0.271223     -0.229163
H     19.01126     19.01126     19.01126        -0.246033     -0.267974     -0.245766
H     19.01126     12.45634     12.45634        -0.251488      0.269881      0.234664
H     12.45634     19.01126     12.45634         0.290956     -0.235884      0.233820
C     10.35284      5.61067      6.59456         0.392711     -0.421105     -1.453737
C     10.62556     15.36773      6.59456        -0.155345      0.584586     -0.636076
C     10.62556      5.61067     14.38384         0.384838     -0.339073      0.846263
C     10.35284     15.36773     14.38384        -0.234994      0.222720      1.106089
C      6.59456     10.35284      5.61067        -1.379678      0.020376     -0.238468
C      6.59456     10.62556     15.36773        -0.642694      0.059738      0.380858
C     14.38384     10.62556      5.61067         1.321170     -0.178073     -0.630477
C     14.38384     10.35284     15.36773         0.369198     -0.122902      0.357795
C      5.61067      6.59456     10.35284        -0.290655     -0.644123     -0.018142
C     15.36773      6.59456     10.62556         0.423191     -0.979034      0.034292
C      5.61067     14.38384     10.62556        -0.135174      1.163255     -0.177782
C     15.36773     14.38384     10.35284         0.456334      0.647237     -0.025053
C      5.61067     10.35284      6.59456        -0.370054     -0.097817     -0.707558
C     15.36773     10.62556      6.59456         0.418209      0.123223     -0.738214
C      5.61067     10.62556     14.38384        -0.379486     -0.171148      1.223740
C     15.36773     10.35284     14.38384         0.277635      0.191581      1.488482
C     10.35284      6.59456      5.61067        -0.050545     -0.705509     -0.616275
C     10.62556      6.59456     15.36773        -0.087827     -0.829776      0.347906
C     10.62556     14.38384      5.61067        -0.465555      0.410214     -0.706680
C     10.35284     14.38384     15.36773        -0.151962      0.595579      0.416301
C      6.59456      5.61067     10.35284        -0.513020     -0.341015      0.029112
C      6.59456     15.36773     10.62556        -0.386207      0.455903      0.053051
C     14.38384      5.61067     10.62556         0.445991     -0.378637      0.002043
C     14.38384     15.36773     10.35284         1.118739      0.496784     -0.071693
C     10.40319      3.19606      7.29314         0.000714      0.660834     -0.336070
C     10.35913      4.25547      6.23373         0.008268     -0.441558      0.286995
C      0.08601      7.29314      7.29314        -0.012975     -0.359679     -0.501756
C      0.13007      6.23373      6.23373        -0.073688      0.837580      0.058212
C      0.08601      3.19606      3.19606        -0.001959      0.679126      0.269325
C      0.13007      4.25547      4.25547         0.027133     -0.267998     -0.541609
C     10.40319      7.29314      3.19606        -0.067407     -1.169601      0.567717
C     10.35913      6.23373      4.25547        -0.037067      0.369719     -0.201855
C      7.29314     10.40319      3.19606        -1.090362     -0.058201      0.187566
C      6.23373     10.35913      4.25547         0.366305      0.081979     -0.543637
C      7.29314      0.08601      7.29314        -0.417742      0.033532     -0.545865
C      6.23373      0.13007      6.23373         0.177170      0.131313      0.129363
C      3.19606      0.08601      3.19606         0.705987      0.025346      0.160472
C      4.25547      0.13007      4.25547        -0.171115     -0.053976     -0.368309
C      3.19606     10.40319      7.29314         0.386265     -0.025170     -0.873784
C      4.25547     10.35913      6.23373        -0.159272     -0.082293      0.095328
C      3.19606      7.29314     10.40319         0.603104     -0.392005      0.002326
C      4.25547      6.23373     10.35913        -0.112636      0.185856     -0.000991
C      7.29314      7.29314      0.08601        -0.406439     -0.321319     -0.014973
C      6.23373      6.23373      0.13007         0.189149      0.190598     -0.060357
C      3.19606      3.19606      0.08601         0.288199      0.479237     -0.023600
C      4.25547      4.25547      0.13007        -0.397103     -0.228370     -0.031016
C      7.29314      3.19606     10.40319        -0.279958      0.589735     -0.012230
C      6.23373      4.25547     10.35913         0.005255     -0.115699      0.021268
O     10.43466      3.58206      8.50569        -0.029187      0.097543      0.322985
O     10.54374     17.39634      8.50569         0.063409     -0.131979      0.592567
O     10.54374      3.58206     12.47271         0.027126      0.107440     -0.391635
O     10.43466     17.39634     12.47271         0.088277     -0.042023     -0.372839
O      8.50569     10.43466      3.58206         0.708789     -0.058174      0.007031
O      8.50569     10.54374     17.39634         0.461748      0.057507     -0.072842
O     12.47271     10.54374      3.58206        -0.652705      0.116906      0.205426
O     12.47271     10.43466     17.39634        -0.283169     -0.004997      0.016225
O      3.58206      8.50569     10.43466         0.042235      0.463058     -0.068205
O     17.39634      8.50569     10.54374        -0.062014      0.458478      0.055682
O      3.58206     12.47271     10.54374         0.115450     -0.584182      0.001517
O     17.39634     12.47271     10.43466        -0.169920     -0.738514     -0.059254
O      3.58206     10.43466      8.50569         0.214686     -0.062169      0.778456
O     17.39634     10.54374      8.50569        -0.110409      0.075793      0.581699
O      3.58206     10.54374     12.47271        -0.002458     -0.000771     -0.266553
O     17.39634     10.43466     12.47271         0.041212     -0.013259     -0.215421
O     10.43466      8.50569      3.58206        -0.100564      0.570775     -0.125199
O     10.54374      8.50569     17.39634         0.066915      0.503362     -0.094405
O     10.54374     12.47271      3.58206         0.105569     -0.623077      0.133180
O     10.43466     12.47271     17.39634        -0.059807     -0.641412     -0.248193
O      8.50569      3.58206     10.43466         0.398247      0.028475     -0.032992
O      8.50569     17.39634     10.54374         0.626907     -0.153664      0.049470
O     12.47271      3.58206     10.54374        -0.505888      0.126780      0.037002
O     12.47271     17.39634     10.43466        -0.622460     -0.135582      0.038780
O     11.90042     11.90042     19.56718        -0.273525     -0.307607      0.235693
O     19.56718     19.56718     19.56718         0.301923      0.318440      0.300250
O     19.56718     11.90042     11.90042         0.284786     -0.324793     -0.230602
O     11.90042     19.56718     11.90042        -0.317215      0.229779     -0.201435
O      9.45224      1.03696      9.45224        -0.085940      0.084985     -0.065512
O      1.03696      9.45224      9.45224         0.102207     -0.117687     -0.044268
O      1.03696      1.03696      1.03696         0.085074      0.057669      0.097672
O      9.45224      9.45224      1.03696        -0.062571     -0.133113      0.130336
Zr     10.48920      2.52580     10.48920         0.029680     -0.089053      0.069414
Zr     10.48920     18.45260     10.48920        -0.169177      0.263001     -0.347420
Zr     10.48920     10.48920      2.52580         0.121907      0.358993     -0.353950
Zr     10.48920     10.48920     18.45260        -0.083403     -0.198211      0.173243
Zr      2.52580     10.48920     10.48920        -0.257553      0.124883      0.223972
Zr     18.45260     10.48920     10.48920         0.230863     -0.109666      0.000555
Pd      9.39365     14.23982      9.37018         0.002695      0.041634     -0.031489
Pd      8.62817     13.72272     12.96530        -0.006334     -0.013438      0.009624
Pd     12.02912     14.41200      8.74489         0.012410     -0.003094     -0.003312
Pd     12.77616     12.80597     10.61770        -0.015629      0.020510      0.028146
Pd     12.14964      7.10270     12.60011        -0.006998      0.013593      0.022597
Pd     11.22434     14.81789     11.51371        -0.028025      0.031072     -0.024004
Pd     10.10084     12.47548     11.12747        -0.033622      0.032271     -0.038866
Pd     13.48247     12.13390      7.97643         0.001386     -0.002607      0.010383
Pd     11.48521     11.55645      6.11021         0.000860      0.003125     -0.003343
Pd      7.85096      8.58551      7.54086         0.011442     -0.035011      0.000432
Pd      8.74390     11.72442      6.88751        -0.008605      0.009206     -0.013628
Pd     10.31958      9.45839      8.12677        -0.005697      0.008254      0.016046
Pd      8.51053     14.42624      6.85457        -0.006836      0.013364     -0.027204
Pd     12.38489      9.02912      6.57121        -0.016194      0.004902      0.010121
Pd      9.75123      9.61258      5.54187        -0.005404     -0.000700      0.010027
Pd      6.88900      9.46074     12.19816        -0.009465      0.008703     -0.004019
Pd     12.20540      6.68224      7.85632         0.003576      0.014375      0.021909
Pd      5.95932     10.47244      9.74060        -0.015563     -0.020344     -0.008557
Pd      7.58264      7.11243     13.24483         0.000100      0.035980      0.027587
Ir     11.81876      9.69368     13.05878        -0.034359      0.007974      0.002387
Ir     13.58202      8.98590     11.43402        -0.012426      0.008158      0.013379
Ir      9.42626      8.83087     13.83617        -0.004899      0.006219      0.065500
Ir     10.57354     10.90995     14.86970        -0.014475     -0.012341      0.045365
Ir      7.30433     12.03990     11.36750        -0.015917     -0.016910     -0.002919
Ir     14.69676     10.82467     10.07686        -0.014843      0.023558      0.040028
Ir     12.19941     10.46966      9.65302        -0.007625      0.024758      0.010200
Ir      8.78574     11.06296     13.03256         0.018265      0.006150     -0.029079
Ir     10.14806      9.84087     11.23705        -0.013491      0.027737     -0.034750
Ir     13.78518     11.35758     12.39639        -0.048310      0.009320      0.042982
Ir     11.67832     12.28861     13.11516        -0.077510     -0.004518     -0.003667
Ir      8.54280     11.06401      9.38989        -0.014341     -0.005560     -0.017301
Ir     11.58985      7.96768     10.05612         0.014313      0.012834      0.017836
Ir      7.23809     12.98196      8.69246         0.009215      0.029444      0.010551
Ir      9.50623      7.00769      9.07852         0.012620     -0.008679      0.025054
Ir      8.07222      8.74130     10.10460        -0.018002      0.018365     -0.003103
Ir     10.76508     12.08522      8.53822        -0.010978      0.011145     -0.014249
Ir      9.57218      7.40898     11.63687        -0.005324      0.044383      0.042939
Ir     13.69630      8.68034      8.79733        -0.003322      0.038303      0.011134
