35
# total energy = -301.58828353 eVC      6.68870     10.29750      7.67003        -0.046267      0.025372     -0.029817
C      8.07621      9.95074      7.58710         0.006238     -0.001681     -0.001473
C      9.41653      5.71545      7.64308        -0.043381     -0.012658     -0.035316
C      1.46476      5.34431      7.69345         0.005857      0.027333      0.018145
C      4.19090      0.75978      7.64316         0.076158     -0.015482     -0.040134
C      2.80285      1.10546      7.57034         0.015402     -0.030054     -0.015144
C      0.70347      4.16395      7.66178        -0.034251      0.012522     -0.017813
C      1.08416      2.78559      7.58046         0.031491     -0.032712      0.009520
C      5.35321      1.55106      7.63084        -0.003284      0.017074     -0.020647
C      5.52652      9.50740      7.70237         0.012072     -0.019652      0.020986
C     10.17844      6.89614      7.64815         0.023493     -0.056878     -0.028884
C      9.79891      8.27498      7.57449        -0.008768     -0.010899     -0.000316
C      0.77915      6.57539      7.65723         0.004178     -0.060299     -0.009107
C      1.26804      7.91959      7.57757         0.018353     -0.038761      0.034868
C     10.10226      4.48448      7.64234         0.004518      0.024943     -0.013726
C      9.61551      3.13968      7.55132        -0.043701      0.015172      0.005981
C      4.27833     10.16073      7.66774         0.038515      0.033230     -0.013508
C      2.94595      9.63887      7.58515         0.045860     -0.005643      0.030651
C      6.60106      0.89599      7.63197        -0.024138      0.005056     -0.009008
C      7.93371      1.41622      7.54179        -0.023582      0.046501      0.019472
N      8.80501      0.33010      7.46723         0.023194     -0.058290      0.010973
N      0.16301      8.76485      7.48576        -0.068286      0.035005     -0.001949
N      8.55046      8.71460      7.60099        -0.050942     -0.027394      0.046673
N      2.33262      2.34225      7.59569        -0.011468      0.075775      0.046322
N      2.07354     10.72307      7.49509        -0.016467      0.072099     -0.002266
N     10.72248      2.29499      7.47881         0.069721     -0.006451     -0.003044
N      2.58164      8.31578      7.59093         0.053242     -0.029240      0.098892
N      8.30123      2.74027      7.54115        -0.046648      0.021558      0.054170
O      5.32160      2.87961      7.55101         0.060161      0.006876     -0.038746
O      5.56231      8.17775      7.74727        -0.065872      0.004595      0.033383
O      8.08735      5.71552      7.57037        -0.019112     -0.076537     -0.050841
O      2.79463      5.34335      7.73912        -0.009957      0.048304      0.033016
Zr      6.54483      4.45357      7.43171        -0.008898      0.031479     -0.000304
Zr      4.34422      6.59810      7.79532         0.026150     -0.021696     -0.000492
Zr      0.02757     10.81065      6.87169         0.010421      0.001432     -0.130517
