152
# total energy = -1005.51441948 eVH     10.35389      5.87395      7.64558         0.160386      0.102100      0.572271
H     10.62451     15.10445      7.64558        -0.120553     -0.146776      0.500484
H     10.62451      5.87395     13.33282         0.573780      0.082424     -0.846901
H     10.35389     15.10445     13.33282         0.023475     -0.156755     -0.399677
H      7.64558     10.35389      5.87395         0.355652      0.039253      0.164651
H      7.64558     10.62451     15.10445         0.894369      0.539737      0.007025
H     13.33282     10.62451      5.87395        -0.436613      0.351230      0.109745
H     13.33282     10.35389     15.10445        -0.850007     -0.072326      0.006117
H      5.87395      7.64558     10.35389         0.319926      1.214022      0.031546
H     15.10445      7.64558     10.62451        -0.107647      0.489077      0.295458
H      5.87395     13.33282     10.62451         0.183378     -0.611523      0.050014
H     15.10445     13.33282     10.35389        -0.080843     -0.949379     -0.200962
H      5.87395     10.35389      7.64558         0.206630      0.052710      0.440577
H     15.10445     10.62451      7.64558        -0.141425      0.518584      0.771036
H      5.87395     10.62451     13.33282         0.046057      0.433229     -1.047916
H     15.10445     10.35389     13.33282        -0.075304     -0.032203     -0.640874
H     10.35389      7.64558      5.87395         0.328723      1.173558      0.066185
H     10.62451      7.64558     15.10445         0.678323      0.684112     -0.219113
H     10.62451     13.33282      5.87395        -0.398076     -0.812782      0.271162
H     10.35389     13.33282     15.10445        -0.102944     -0.471029     -0.290096
H      7.64558      5.87395     10.35389         0.826960      0.057351     -0.208940
H      7.64558     15.10445     10.62451         0.802967     -0.178819      0.033053
H     13.33282      5.87395     10.62451        -0.713010      0.166376      0.511793
H     13.33282     15.10445     10.35389        -0.376367     -0.119578     -0.091447
H     12.45634     12.45634     19.01126         0.246326      0.271878     -0.232889
H     19.01126     19.01126     19.01126        -0.275211     -0.250017     -0.238945
H     19.01126     12.45634     12.45634        -0.278020      0.262726      0.219370
H     12.45634     19.01126     12.45634         0.236451     -0.262705      0.273351
C     10.35284      5.61067      6.59456        -0.318752     -0.753773     -0.112582
C     10.62556     15.36773      6.59456         0.059138      0.326957     -0.267268
C     10.62556      5.61067     14.38384        -0.148842     -0.512522      0.303181
C     10.35284     15.36773     14.38384         0.018573      0.187985      0.349104
C      6.59456     10.35284      5.61067        -0.397017      0.011965     -0.249876
C      6.59456     10.62556     15.36773        -0.663059      0.091676      0.646788
C     14.38384     10.62556      5.61067        -0.262385     -0.463235     -0.681505
C     14.38384     10.35284     15.36773         1.048870     -0.088415      0.177633
C      5.61067      6.59456     10.35284        -0.740685     -0.263127     -0.339416
C     15.36773      6.59456     10.62556         0.532873      0.016350     -0.358481
C      5.61067     14.38384     10.62556        -0.222146      0.658103     -0.018583
C     15.36773     14.38384     10.35284         0.272984      0.955079      0.025876
C      5.61067     10.35284      6.59456        -0.299886      0.006856     -0.775536
C     15.36773     10.62556      6.59456         0.496647     -0.263494      0.212114
C      5.61067     10.62556     14.38384        -0.690932     -0.008965      0.551823
C     15.36773     10.35284     14.38384         0.428008     -0.033816      0.996559
C     10.35284      6.59456      5.61067        -0.132934     -0.772137     -0.568509
C     10.62556      6.59456     15.36773        -0.063945     -0.457870      0.579003
C     10.62556     14.38384      5.61067         0.197941      1.165147     -0.348338
C     10.35284     14.38384     15.36773        -0.003027      0.838452      0.385347
C      6.59456      5.61067     10.35284         0.140336     -1.066616      0.273038
C      6.59456     15.36773     10.62556        -0.976591      0.229039      0.078726
C     14.38384      5.61067     10.62556         0.301017     -0.561154     -0.366400
C     14.38384     15.36773     10.35284         0.142038      0.362948     -0.078516
C     10.40319      3.19606      7.29314         0.003844      0.854638     -0.449033
C     10.35913      4.25547      6.23373         0.063646     -0.546652      0.108346
C      0.08601      7.29314      7.29314        -0.041077     -0.831812     -0.236290
C      0.13007      6.23373      6.23373        -0.045585      0.209183      0.450305
C      0.08601      3.19606      3.19606         0.020739      1.415682      0.265666
C      0.13007      4.25547      4.25547         0.013318     -0.610415     -0.272409
C     10.40319      7.29314      3.19606         0.002189     -0.334278      0.265830
C     10.35913      6.23373      4.25547         0.030750      0.023175     -0.732778
C      7.29314     10.40319      3.19606        -0.261844      0.017775      0.533419
C      6.23373     10.35913      4.25547         0.141359      0.042872     -0.059054
C      7.29314      0.08601      7.29314        -0.843216     -0.076349     -0.307937
C      6.23373      0.13007      6.23373         0.815035     -0.175410      0.416138
C      3.19606      0.08601      3.19606         0.919252     -0.026018      0.570967
C      4.25547      0.13007      4.25547        -0.538140     -0.093874     -0.651048
C      3.19606     10.40319      7.29314         0.547303     -0.009943     -0.761710
C      4.25547     10.35913      6.23373        -0.264464      0.064973      0.215965
C      3.19606      7.29314     10.40319         0.298441     -1.311487      0.025411
C      4.25547      6.23373     10.35913        -1.058369      0.023287      0.116709
C      7.29314      7.29314      0.08601        -0.440006     -0.426592     -0.013717
C      6.23373      6.23373      0.13007         0.546817      0.235703      0.016588
C      3.19606      3.19606      0.08601         0.450094      0.348676     -0.033826
C      4.25547      4.25547      0.13007        -0.131578     -0.576959     -0.046601
C      7.29314      3.19606     10.40319        -0.390220      0.449203      0.055696
C      6.23373      4.25547     10.35913         0.262736     -0.743036      0.138350
O     10.43466      3.58206      8.50569        -0.014416      0.053038      0.447515
O     10.54374     17.39634      8.50569         0.064886     -0.076357      0.341443
O     10.54374      3.58206     12.47271         0.025840     -0.120490     -0.142755
O     10.43466     17.39634     12.47271        -0.027789     -0.166859     -0.519257
O      8.50569     10.43466      3.58206         0.279324     -0.021929      0.012182
O      8.50569     10.54374     17.39634         0.790205     -0.045141     -0.176961
O     12.47271     10.54374      3.58206        -0.802247      0.097542      0.086084
O     12.47271     10.43466     17.39634        -0.478669      0.033974     -0.078293
O      3.58206      8.50569     10.43466         0.155056      1.085957     -0.034870
O     17.39634      8.50569     10.54374        -0.158590      0.587852      0.067523
O      3.58206     12.47271     10.54374         0.103418     -0.437372      0.036227
O     17.39634     12.47271     10.43466        -0.145064     -0.557764     -0.031259
O      3.58206     10.43466      8.50569         0.066244     -0.090195      0.606825
O     17.39634     10.54374      8.50569        -0.031942      0.089602      0.422012
O      3.58206     10.54374     12.47271         0.015761      0.035675     -0.491469
O     17.39634     10.43466     12.47271        -0.229308     -0.046232     -0.646198
O     10.43466      8.50569      3.58206        -0.038608      0.451967      0.139490
O     10.54374      8.50569     17.39634        -0.061249      0.707457     -0.219867
O     10.54374     12.47271      3.58206         0.035074     -0.996557      0.106962
O     10.43466     12.47271     17.39634         0.059566     -0.802397     -0.213551
O      8.50569      3.58206     10.43466         0.579364      0.152150     -0.053930
O      8.50569     17.39634     10.54374         0.530800     -0.179972     -0.000818
O     12.47271      3.58206     10.54374        -0.603745      0.193628      0.003186
O     12.47271     17.39634     10.43466        -0.252732      0.072735     -0.044350
O     11.90042     11.90042     19.56718        -0.263699     -0.309652      0.228677
O     19.56718     19.56718     19.56718         0.325764      0.293654      0.246723
O     19.56718     11.90042     11.90042         0.317506     -0.261205     -0.235813
O     11.90042     19.56718     11.90042        -0.238969      0.301144     -0.330613
O      9.45224      1.03696      9.45224         0.002661      0.067626     -0.132080
O      1.03696      9.45224      9.45224         0.084407     -0.074083     -0.170063
O      1.03696      1.03696      1.03696         0.111276      0.167459      0.027850
O      9.45224      9.45224      1.03696        -0.093715     -0.113124      0.011471
Zr     10.48920      2.52580     10.48920        -0.093762     -0.217497     -0.020603
Zr     10.48920     18.45260     10.48920        -0.098167      0.185656      0.184527
Zr     10.48920     10.48920      2.52580        -0.100026     -0.442122     -0.205784
Zr     10.48920     10.48920     18.45260        -0.151553      0.030502      0.433969
Zr      2.52580     10.48920     10.48920        -0.338169      0.288819      0.298578
Zr     18.45260     10.48920     10.48920         0.161067      0.015727     -0.103977
Pd     13.62194      8.95641      9.11992         0.003809     -0.003194      0.017581
Pd      5.70297      9.72201      9.98430         0.007927      0.015946      0.020282
Pd      6.85439     11.39314     11.71430        -0.015594      0.071240     -0.005650
Pd     12.18226     13.12171      7.34026         0.004772     -0.010319     -0.007519
Pd     12.08881      7.88868      7.17457        -0.009465     -0.014046      0.026126
Pd      8.29169      7.05763      6.55207         0.000493     -0.002751      0.012925
Pd     10.87180     11.29406      5.58131         0.015655     -0.008175     -0.002390
Pd     14.63772      8.53273      6.68718        -0.013473      0.000389      0.016627
Pd      9.63778     11.80729      8.00685         0.004465     -0.006559     -0.006874
Pd      6.69917      6.78300     12.30227         0.025233     -0.002454     -0.007903
Pd      6.39015      7.56146      8.27721        -0.008977      0.025883     -0.005074
Pd      6.98553      8.85629     13.88942        -0.033442     -0.046076      0.045177
Pd     11.64351      6.54766      9.46995        -0.020994      0.002014      0.036538
Pd      9.74319      9.29518      6.89666        -0.000270     -0.000405      0.004953
Pd      9.02826     13.96938      9.41843        -0.005744     -0.002743     -0.007048
Pd     10.02242      7.07264     11.52502        -0.062614      0.041658      0.030151
Pd     10.52937      8.96541      9.54686        -0.006195      0.005143      0.007915
Pd      9.36006     11.26650     10.60792        -0.006611      0.016792     -0.002369
Pd      8.89502      6.99192      9.11830        -0.010339      0.004263      0.012300
Pd      8.78060      6.92147     13.86548        -0.028975     -0.056937      0.054019
Pd      8.04622      8.91725     11.40883        -0.040040      0.060958      0.047043
Pd     11.95055     10.52769      7.83710         0.007963     -0.010549     -0.001510
Pd      7.14113     12.05590      9.15288        -0.004613      0.002866     -0.016565
Pd      8.02296      9.59017      8.79916         0.006956     -0.000657      0.019684
Pd     14.18061      6.50279      8.44511        -0.022791     -0.006713      0.005969
Pd     12.54759      8.25408     11.46340        -0.015434     -0.001212      0.005186
Pd      8.82635     11.34152     13.42995        -0.019551      0.023500      0.000278
Pd     13.89453     11.93153      9.04133         0.003700     -0.005182     -0.003123
Pd     12.86418     10.57047     13.08987         0.004652      0.000326      0.000858
Pd     14.71380     10.30753     11.13405         0.012223      0.013613      0.005747
Pd     12.04811     10.73416     10.59349         0.007302      0.002959     -0.004388
Pd     11.45187     13.15545      9.87199        -0.003076     -0.000662     -0.009908
Pd     13.56854     12.81256     11.67421        -0.007147      0.006874     -0.003645
Pd     11.03553     12.53811     12.44495         0.001497     -0.006564     -0.001490
Pd     11.09987     11.36214     14.88059        -0.014705     -0.012930     -0.000778
Pd     10.47127      9.50047     12.56118        -0.002430      0.035473     -0.016204
Pd      9.44256      9.30750     15.00905        -0.011411     -0.018510     -0.052721
Pd      8.62016     13.51950     11.99350         0.024813      0.031276      0.001821
