26
# total energy = -205.60939013 eVC      0.70382      1.25137      7.50000        -0.007734      0.001208     -0.000000
C     10.79523      6.56631      7.50000         0.012999      0.006319     -0.000000
C      0.73789     11.42980      7.50000        -0.006555     -0.008550      0.000000
C     11.53033      5.33405      7.50000         0.007734     -0.001208     -0.000000
C      1.43892      0.01911      7.50000        -0.012999     -0.006319     -0.000000
C     11.49626     -4.84438      7.50000         0.006555      0.008550      0.000000
C     10.79635     -3.65086      7.50000        -0.011959      0.023559     -0.000000
C     10.85627      4.12553      7.50000        -0.020040     -0.040677     -0.000000
C      2.82767      0.04251      7.50000         0.098891      0.012459      0.000000
C      1.43780     10.23628      7.50000         0.011959     -0.023559      0.000000
C      1.37788      2.45989      7.50000         0.020040      0.040677     -0.000000
C      9.40648      6.54291      7.50000        -0.098891     -0.012459     -0.000000
N      7.76640      0.25887      7.50000        -0.014640      0.008289      0.000000
N      4.46775      6.32655      7.50000         0.014640     -0.008289      0.000000
N      4.01115      0.08457      7.50000        -0.102406     -0.007516     -0.000000
N     10.22938     -2.61218      7.50000         0.010434      0.007759      0.000000
N     10.29542      3.08330      7.50000         0.016992      0.020162      0.000000
N      8.22300      6.50085      7.50000         0.102406      0.007516      0.000000
N      2.00477      9.19760      7.50000        -0.010434     -0.007759      0.000000
N      1.93873      3.50212      7.50000        -0.016992     -0.020162      0.000000
Ir      2.98896      7.53176      7.50000         0.008628      0.026431     -0.000000
Ir      2.98003      5.13170      7.50000        -0.006387     -0.027142      0.000000
Ir      6.29516      6.40827      7.50000         0.025570      0.004023      0.000000
Ir      9.24519     -0.94634      7.50000        -0.008628     -0.026431      0.000000
Ir      9.25412      1.45372      7.50000         0.006387      0.027142      0.000000
Ir      5.93899      0.17715      7.50000        -0.025570     -0.004023      0.000000
