152
# total energy = -1060.51529783 eVH     10.35389      5.87395      7.64558        -0.211191      0.144076      0.989829
H     10.62451     15.10445      7.64558         0.303001     -0.096347      0.797769
H     10.62451      5.87395     13.33282        -0.288299      0.086506     -0.704620
H     10.35389     15.10445     13.33282         0.153157     -0.284971     -0.743704
H      7.64558     10.35389      5.87395         0.840630     -0.200258      0.219075
H      7.64558     10.62451     15.10445         0.247412      0.037147     -0.059003
H     13.33282     10.62451      5.87395        -0.746910      0.043775      0.147290
H     13.33282     10.35389     15.10445        -0.309760     -0.094827     -0.032401
H      5.87395      7.64558     10.35389         0.102574      0.413232      0.005850
H     15.10445      7.64558     10.62451        -0.103075      0.687439      0.241546
H      5.87395     13.33282     10.62451         0.006061     -0.885812      0.103298
H     15.10445     13.33282     10.35389        -0.205298     -0.389636      0.032401
H      5.87395     10.35389      7.64558         0.282596      0.055407      0.361046
H     15.10445     10.62451      7.64558        -0.139978     -0.140041      0.562606
H      5.87395     10.62451     13.33282        -0.036486      0.394626     -0.699853
H     15.10445     10.35389     13.33282         0.174741     -0.439022     -0.900510
H     10.35389      7.64558      5.87395         0.007893      0.502623      0.351164
H     10.62451      7.64558     15.10445         0.229711      0.651760     -0.107157
H     10.62451     13.33282      5.87395         0.036316     -0.561021      0.209191
H     10.35389     13.33282     15.10445         0.065142     -0.354457     -0.123291
H      7.64558      5.87395     10.35389         0.429100      0.137983      0.057437
H      7.64558     15.10445     10.62451         0.390208     -0.130694      0.213184
H     13.33282      5.87395     10.62451        -0.309172      0.120954     -0.012620
H     13.33282     15.10445     10.35389        -0.636368     -0.191888      0.212518
H     12.45634     12.45634     19.01126         0.260141      0.267344     -0.223609
H     19.01126     19.01126     19.01126        -0.248987     -0.269936     -0.236262
H     19.01126     12.45634     12.45634        -0.241529      0.267499      0.242871
H     12.45634     19.01126     12.45634         0.294863     -0.223871      0.237124
C     10.35284      5.61067      6.59456         0.388102     -0.313250     -1.175019
C     10.62556     15.36773      6.59456        -0.264904      0.644698     -0.566460
C     10.62556      5.61067     14.38384         0.335221     -0.277904      0.744825
C     10.35284     15.36773     14.38384        -0.199755      0.334727      0.911289
C      6.59456     10.35284      5.61067        -1.168919     -0.002257     -0.209509
C      6.59456     10.62556     15.36773        -0.661280      0.062720      0.368697
C     14.38384     10.62556      5.61067         1.332998     -0.109890     -0.610739
C     14.38384     10.35284     15.36773         0.319140     -0.125809      0.411986
C      5.61067      6.59456     10.35284        -0.279108     -0.600129     -0.007693
C     15.36773      6.59456     10.62556         0.346613     -0.934318     -0.195137
C      5.61067     14.38384     10.62556        -0.202108      1.011065     -0.289860
C     15.36773     14.38384     10.35284         0.446023      0.813977     -0.090814
C      5.61067     10.35284      6.59456        -0.277680     -0.110823     -0.544051
C     15.36773     10.62556      6.59456         0.269543      0.126216     -0.491046
C      5.61067     10.62556     14.38384        -0.297388     -0.147341      1.217888
C     15.36773     10.35284     14.38384         0.171986      0.142124      1.228711
C     10.35284      6.59456      5.61067        -0.033923     -0.652359     -0.418258
C     10.62556      6.59456     15.36773        -0.035551     -0.784378      0.371250
C     10.62556     14.38384      5.61067        -0.459548      0.414100     -0.771209
C     10.35284     14.38384     15.36773        -0.166168      0.658018      0.478391
C      6.59456      5.61067     10.35284        -0.566293     -0.326905      0.043527
C      6.59456     15.36773     10.62556        -0.266775      0.503037      0.088194
C     14.38384      5.61067     10.62556         0.375125     -0.346250      0.069654
C     14.38384     15.36773     10.35284         1.054629      0.356913     -0.107501
C     10.40319      3.19606      7.29314        -0.011795      0.883430     -0.366760
C     10.35913      4.25547      6.23373         0.048089     -0.389101      0.287511
C      0.08601      7.29314      7.29314        -0.013433     -0.526137     -0.496556
C      0.13007      6.23373      6.23373        -0.080822      0.798405      0.051510
C      0.08601      3.19606      3.19606        -0.009786      0.620067      0.270341
C      0.13007      4.25547      4.25547         0.072623     -0.236231     -0.609743
C     10.40319      7.29314      3.19606        -0.043051     -1.073458      0.800290
C     10.35913      6.23373      4.25547        -0.032828      0.354412     -0.225909
C      7.29314     10.40319      3.19606        -0.978496     -0.053567      0.297559
C      6.23373     10.35913      4.25547         0.376085      0.107206     -0.519005
C      7.29314      0.08601      7.29314        -0.772958      0.019228     -0.374581
C      6.23373      0.13007      6.23373         0.172444      0.082158      0.122559
C      3.19606      0.08601      3.19606         0.600302      0.007216      0.183582
C      4.25547      0.13007      4.25547        -0.208484     -0.087596     -0.262193
C      3.19606     10.40319      7.29314         0.496298     -0.035887     -0.969855
C      4.25547     10.35913      6.23373        -0.144640     -0.011700      0.162807
C      3.19606      7.29314     10.40319         0.684900     -0.423850      0.008003
C      4.25547      6.23373     10.35913        -0.113764      0.170061      0.000312
C      7.29314      7.29314      0.08601        -0.397012     -0.303706     -0.023719
C      6.23373      6.23373      0.13007         0.234765      0.127265     -0.149121
C      3.19606      3.19606      0.08601         0.324696      0.548158     -0.022376
C      4.25547      4.25547      0.13007        -0.437310     -0.292441     -0.003841
C      7.29314      3.19606     10.40319        -0.277250      0.619386      0.002974
C      6.23373      4.25547     10.35913         0.020163     -0.171319      0.020244
O     10.43466      3.58206      8.50569        -0.036093      0.044567      0.247919
O     10.54374     17.39634      8.50569         0.062728     -0.066896      0.496533
O     10.54374      3.58206     12.47271         0.032554      0.119531     -0.440966
O     10.43466     17.39634     12.47271         0.076427     -0.046962     -0.498652
O      8.50569     10.43466      3.58206         0.669637     -0.081956      0.054872
O      8.50569     10.54374     17.39634         0.773081      0.083819     -0.120155
O     12.47271     10.54374      3.58206        -0.584980      0.116210      0.199934
O     12.47271     10.43466     17.39634        -0.350889     -0.001369      0.038836
O      3.58206      8.50569     10.43466         0.018510      0.445051     -0.077338
O     17.39634      8.50569     10.54374        -0.093178      0.443141      0.043452
O      3.58206     12.47271     10.54374         0.131023     -0.610957     -0.004470
O     17.39634     12.47271     10.43466        -0.233818     -0.732640     -0.008969
O      3.58206     10.43466      8.50569         0.174842     -0.043991      0.805049
O     17.39634     10.54374      8.50569         0.001698      0.035166      0.319404
O      3.58206     10.54374     12.47271         0.006010      0.005057     -0.299042
O     17.39634     10.43466     12.47271        -0.029427      0.002850     -0.340795
O     10.43466      8.50569      3.58206        -0.103265      0.549918     -0.073498
O     10.54374      8.50569     17.39634         0.053084      0.604671     -0.079507
O     10.54374     12.47271      3.58206         0.097849     -0.568593      0.109793
O     10.43466     12.47271     17.39634        -0.053965     -0.825580     -0.300893
O      8.50569      3.58206     10.43466         0.372954      0.024910     -0.063280
O      8.50569     17.39634     10.54374         0.576328     -0.137118      0.054436
O     12.47271      3.58206     10.54374        -0.503721      0.123449      0.027656
O     12.47271     17.39634     10.43466        -0.616712     -0.093916      0.049679
O     11.90042     11.90042     19.56718        -0.272319     -0.279580      0.222892
O     19.56718     19.56718     19.56718         0.295536      0.313990      0.287552
O     19.56718     11.90042     11.90042         0.271605     -0.311712     -0.253845
O     11.90042     19.56718     11.90042        -0.314295      0.210105     -0.207675
O      9.45224      1.03696      9.45224        -0.119997      0.143695     -0.044708
O      1.03696      9.45224      9.45224         0.148017     -0.142444     -0.051563
O      1.03696      1.03696      1.03696         0.079268      0.088739      0.078256
O      9.45224      9.45224      1.03696        -0.091582     -0.130104      0.135815
Zr     10.48920      2.52580     10.48920         0.042028     -0.170254      0.170663
Zr     10.48920     18.45260     10.48920        -0.181059      0.230387     -0.387503
Zr     10.48920     10.48920      2.52580         0.130829      0.378464     -0.258126
Zr     10.48920     10.48920     18.45260        -0.008153     -0.259038      0.307110
Zr      2.52580     10.48920     10.48920        -0.314754      0.091536      0.261166
Zr     18.45260     10.48920     10.48920         0.191220     -0.150086     -0.032996
Pd      9.31099     14.39973      9.17679        -0.010775     -0.032588      0.030332
Pd      8.56360     13.70813     13.10415        -0.027044     -0.088399      0.090844
Pd     12.01933     14.36425      8.86347        -0.019516      0.055920     -0.077401
Pd     12.53054     12.81437     10.86816        -0.023432     -0.009739     -0.010959
Pd     12.09371      7.13206     12.51932        -0.029222      0.013981      0.004453
Pd     11.02397     15.10548     11.32315        -0.013013     -0.007730      0.027021
Pd      9.88984     12.73823     11.01955        -0.051928      0.093265      0.041153
Pd     13.57509     12.28707      8.06070        -0.027540      0.012986      0.074992
Pd     11.55745     11.66909      6.17157         0.043607      0.042005      0.080855
Pd      7.85229      8.17311      7.47675        -0.012298      0.034814      0.052574
Pd      8.73143     11.80059      6.83804        -0.033568      0.036610      0.039737
Pd     10.04118      9.56565      8.22343         0.021250      0.037908     -0.008413
Pd      8.47457     14.50568      6.66648         0.011457     -0.017825     -0.032961
Pd     12.30433      9.26790      7.01233         0.021536     -0.139301     -0.019526
Pd      9.85154      9.65443      5.59760         0.053351      0.008194     -0.070057
Pd      6.93473      9.41821     12.24026        -0.061299     -0.036312     -0.014054
Pd     12.28546      6.72531      7.89252        -0.000338      0.004434      0.011495
Pd      5.85384     10.46865      9.84373         0.007971      0.022581     -0.008134
Pd      7.53734      7.01081     13.23788         0.004861     -0.000272      0.011126
Ir     11.49148      9.66945     13.11801         0.118110     -0.055789     -0.115745
Ir     13.36798      9.19554     11.50623        -0.102035     -0.100520     -0.026536
Ir      9.19982      8.81495     14.01233        -0.009925     -0.037577     -0.065047
Ir     10.36990     10.76152     15.15829        -0.023627     -0.013114      0.037692
Ir      7.26144     11.99423     11.45952        -0.057791     -0.004921      0.049650
Ir     14.58323     11.08817     10.43511         0.100141      0.047311     -0.112273
Ir     12.29147     10.51492      9.49585        -0.083199      0.031200     -0.009517
Ir      8.90921     11.07716     12.98864         0.087976     -0.033126     -0.014511
Ir     10.08580     10.00169     10.97581        -0.003857      0.064182     -0.020301
Ir     13.48114     11.39891     12.74052        -0.015881     -0.010163      0.033687
Ir     11.22219     12.20509     13.20184        -0.105467      0.041848     -0.002741
Ir      8.35939     11.26583      9.33880        -0.033757     -0.002563     -0.026685
Ir     11.53420      8.02421     10.01923         0.058582      0.021851      0.026746
Ir      7.12594     13.16385      8.54978         0.027074      0.021403     -0.033460
Ir      9.45834      6.97777      9.23812         0.010371      0.028244     -0.032267
Ir      7.99425      8.84869      9.99557        -0.071098      0.039235     -0.065098
Ir     10.71897     12.13202      8.55756        -0.024942     -0.019616      0.016805
Ir      9.51381      7.69312     11.72797         0.003730      0.013829      0.032008
Ir     13.85920      8.55496      9.07251        -0.040697     -0.079872     -0.044842
