152
# total energy = -1005.95852297 eVH     10.35389      5.87395      7.64558         0.210875      0.049659      0.613036
H     10.62451     15.10445      7.64558        -0.104350     -0.150544      0.531441
H     10.62451      5.87395     13.33282         0.493733      0.123105     -0.601253
H     10.35389     15.10445     13.33282         0.063010     -0.185162     -0.532046
H      7.64558     10.35389      5.87395         0.364601      0.030331      0.173070
H      7.64558     10.62451     15.10445         0.683344      0.471261     -0.044248
H     13.33282     10.62451      5.87395        -0.512688      0.397706      0.079240
H     13.33282     10.35389     15.10445        -0.790051     -0.081808     -0.008780
H      5.87395      7.64558     10.35389         0.273658      0.985998     -0.101003
H     15.10445      7.64558     10.62451        -0.100236      0.484024      0.279504
H      5.87395     13.33282     10.62451         0.153406     -0.694504     -0.168374
H     15.10445     13.33282     10.35389        -0.007595     -1.047256     -0.316801
H      5.87395     10.35389      7.64558         0.235485      0.050520      0.510615
H     15.10445     10.62451      7.64558        -0.119124      0.420048      0.787203
H      5.87395     10.62451     13.33282         0.148140      0.349995     -0.687836
H     15.10445     10.35389     13.33282        -0.046400     -0.061414     -0.696873
H     10.35389      7.64558      5.87395         0.327481      1.086416      0.013161
H     10.62451      7.64558     15.10445         0.524892      0.529786     -0.117024
H     10.62451     13.33282      5.87395        -0.405186     -0.827559      0.205196
H     10.35389     13.33282     15.10445        -0.040418     -0.434012     -0.222118
H      7.64558      5.87395     10.35389         0.854455      0.073425     -0.261840
H      7.64558     15.10445     10.62451         0.826038     -0.203012     -0.014128
H     13.33282      5.87395     10.62451        -0.780506      0.187556      0.591885
H     13.33282     15.10445     10.35389        -0.431038     -0.104629     -0.130817
H     12.45634     12.45634     19.01126         0.236999      0.269336     -0.239784
H     19.01126     19.01126     19.01126        -0.261022     -0.241107     -0.262047
H     19.01126     12.45634     12.45634        -0.267862      0.267265      0.220890
H     12.45634     19.01126     12.45634         0.233226     -0.259256      0.273724
C     10.35284      5.61067      6.59456        -0.404138     -0.677403      0.057322
C     10.62556     15.36773      6.59456         0.067875      0.366050     -0.307668
C     10.62556      5.61067     14.38384        -0.329335     -0.389292     -0.266811
C     10.35284     15.36773     14.38384        -0.004032      0.310446      0.530119
C      6.59456     10.35284      5.61067        -0.336795     -0.003674     -0.270447
C      6.59456     10.62556     15.36773        -0.245374     -0.215727      0.785252
C     14.38384     10.62556      5.61067        -0.218843     -0.399002     -0.526849
C     14.38384     10.35284     15.36773         0.958973     -0.070305      0.238158
C      5.61067      6.59456     10.35284        -0.547106     -0.048678     -0.171595
C     15.36773      6.59456     10.62556         0.551395      0.000171     -0.248030
C      5.61067     14.38384     10.62556        -0.308409      0.982222      0.078047
C     15.36773     14.38384     10.35284         0.277519      1.046766      0.054097
C      5.61067     10.35284      6.59456        -0.210769     -0.088642     -0.612368
C     15.36773     10.62556      6.59456         0.432526     -0.255780      0.115646
C      5.61067     10.62556     14.38384        -0.671430     -0.349000     -0.121028
C     15.36773     10.35284     14.38384         0.387451     -0.061958      1.022945
C     10.35284      6.59456      5.61067        -0.223379     -0.411204     -0.621274
C     10.62556      6.59456     15.36773        -0.265168      0.145131      0.451619
C     10.62556     14.38384      5.61067         0.208812      1.051225     -0.336402
C     10.35284     14.38384     15.36773         0.007275      0.564827      0.405322
C      6.59456      5.61067     10.35284        -0.065017     -0.889766      0.279625
C      6.59456     15.36773     10.62556        -1.001178      0.269540      0.083176
C     14.38384      5.61067     10.62556         0.468501     -0.542833     -0.376641
C     14.38384     15.36773     10.35284         0.211662      0.451030     -0.089739
C     10.40319      3.19606      7.29314         0.016324      0.667876     -0.486627
C     10.35913      4.25547      6.23373         0.088776     -0.656027      0.016371
C      0.08601      7.29314      7.29314        -0.042931     -0.407403     -0.324663
C      0.13007      6.23373      6.23373        -0.026264      0.096968      0.568907
C      0.08601      3.19606      3.19606        -0.003950      1.308727      0.287583
C      0.13007      4.25547      4.25547         0.051713     -0.776166     -0.171638
C     10.40319      7.29314      3.19606         0.011578     -0.311893      0.305427
C     10.35913      6.23373      4.25547         0.022757      0.019841     -0.786789
C      7.29314     10.40319      3.19606        -0.286434      0.021601      0.561355
C      6.23373     10.35913      4.25547         0.175471      0.058474     -0.075084
C      7.29314      0.08601      7.29314        -0.506089     -0.066310     -0.376642
C      6.23373      0.13007      6.23373         0.682066     -0.065007      0.470639
C      3.19606      0.08601      3.19606         0.810003     -0.029481      0.584114
C      4.25547      0.13007      4.25547        -0.592702     -0.086891     -0.538311
C      3.19606     10.40319      7.29314         0.470704     -0.008965     -0.735724
C      4.25547     10.35913      6.23373        -0.309685      0.072101      0.191066
C      3.19606      7.29314     10.40319         0.298440     -1.296684      0.046804
C      4.25547      6.23373     10.35913        -0.903463      0.104927      0.133236
C      7.29314      7.29314      0.08601        -0.409949     -0.379681     -0.024589
C      6.23373      6.23373      0.13007         0.452939      0.222952     -0.009831
C      3.19606      3.19606      0.08601         0.481753      0.373052     -0.042262
C      4.25547      4.25547      0.13007        -0.153676     -0.645660     -0.036494
C      7.29314      3.19606     10.40319        -0.336613      0.449986      0.072388
C      6.23373      4.25547     10.35913         0.311458     -0.679913      0.148998
O     10.43466      3.58206      8.50569        -0.015164      0.109875      0.507899
O     10.54374     17.39634      8.50569         0.034053     -0.175621      0.496148
O     10.54374      3.58206     12.47271         0.048748     -0.098775     -0.178635
O     10.43466     17.39634     12.47271        -0.039183     -0.184220     -0.525089
O      8.50569     10.43466      3.58206         0.283659     -0.011415      0.018820
O      8.50569     10.54374     17.39634         0.621851      0.036831     -0.144037
O     12.47271     10.54374      3.58206        -0.754526      0.089068      0.096240
O     12.47271     10.43466     17.39634        -0.440438      0.022187     -0.109576
O      3.58206      8.50569     10.43466         0.157747      1.046199     -0.032400
O     17.39634      8.50569     10.54374        -0.160996      0.544087      0.076362
O      3.58206     12.47271     10.54374         0.088075     -0.373921      0.051338
O     17.39634     12.47271     10.43466        -0.155711     -0.544915     -0.023246
O      3.58206     10.43466      8.50569         0.081891     -0.070286      0.583963
O     17.39634     10.54374      8.50569        -0.111581      0.067571      0.528232
O      3.58206     10.54374     12.47271         0.021335      0.041667     -0.510346
O     17.39634     10.43466     12.47271        -0.227974     -0.039603     -0.621797
O     10.43466      8.50569      3.58206        -0.038539      0.443889      0.139351
O     10.54374      8.50569     17.39634         0.050839      0.534885     -0.157517
O     10.54374     12.47271      3.58206         0.015919     -1.038219      0.188837
O     10.43466     12.47271     17.39634         0.037819     -0.709321     -0.173456
O      8.50569      3.58206     10.43466         0.521343      0.148334     -0.056006
O      8.50569     17.39634     10.54374         0.486290     -0.194734      0.014715
O     12.47271      3.58206     10.54374        -0.624248      0.223157      0.008226
O     12.47271     17.39634     10.43466        -0.232363      0.063755     -0.049299
O     11.90042     11.90042     19.56718        -0.241724     -0.288123      0.249172
O     19.56718     19.56718     19.56718         0.309936      0.295711      0.303053
O     19.56718     11.90042     11.90042         0.296099     -0.263959     -0.233403
O     11.90042     19.56718     11.90042        -0.240368      0.293268     -0.321682
O      9.45224      1.03696      9.45224        -0.017616      0.090257     -0.072456
O      1.03696      9.45224      9.45224         0.092103     -0.090643     -0.131259
O      1.03696      1.03696      1.03696         0.094311      0.188137      0.053138
O      9.45224      9.45224      1.03696        -0.106330     -0.106460      0.036823
Zr     10.48920      2.52580     10.48920        -0.129455     -0.286056     -0.033524
Zr     10.48920     18.45260     10.48920        -0.069563      0.213602      0.065709
Zr     10.48920     10.48920      2.52580        -0.021294     -0.401471     -0.268566
Zr     10.48920     10.48920     18.45260        -0.271651     -0.100972      0.317668
Zr      2.52580     10.48920     10.48920        -0.384172      0.234398      0.255668
Zr     18.45260     10.48920     10.48920         0.233887      0.001202     -0.217416
Pd     13.57955      8.92493      9.26557         0.005445      0.007725     -0.008577
Pd      5.63896      9.87273     10.17349        -0.001421      0.008468     -0.015413
Pd      6.79093     11.85539     11.68051        -0.005987      0.002160      0.004765
Pd     12.11234     13.02728      7.33864        -0.008420      0.002253      0.009515
Pd     11.90650      7.75357      7.43075         0.000036     -0.000454      0.005985
Pd      8.30228      6.93574      6.59368         0.002454     -0.014009     -0.000840
Pd     10.72666     11.18538      5.62626        -0.004908      0.001129      0.000991
Pd     14.42757      8.55218      6.77744        -0.001174     -0.001189     -0.004915
Pd      9.69374     11.75439      8.07714        -0.004585     -0.005395      0.003716
Pd      6.77305      6.80893     12.30825         0.009342     -0.003057     -0.000027
Pd      6.46957      7.86138      8.21276         0.007918      0.021715     -0.024326
Pd      6.52892      8.50219     14.34008         0.012162      0.004382     -0.005178
Pd     11.50397      6.51274      9.86264        -0.003800      0.001936      0.009732
Pd      9.57019      9.23649      7.11983        -0.005814     -0.005830     -0.001996
Pd      8.99728     14.00129      9.29492        -0.003392     -0.005260      0.009304
Pd      9.51987      7.36210     11.73122        -0.010842      0.002871      0.000005
Pd     10.58553      8.98911      9.67704         0.003634     -0.002254     -0.001065
Pd      9.33001     11.52554     10.65627         0.000805     -0.006746      0.007149
Pd      8.91334      7.03456      9.15837        -0.002714      0.001614     -0.001479
Pd      8.55384      6.57398     14.23670         0.002909      0.009933      0.008060
Pd      7.68228      9.33033     11.94654        -0.002318      0.004715      0.003059
Pd     11.99805     10.39896      7.75787        -0.004438     -0.000697     -0.003000
Pd      7.14310     12.02500      9.02947        -0.003339     -0.001604      0.003316
Pd      8.09056      9.59010      9.29731         0.005261     -0.000557      0.006610
Pd     14.02863      6.46745      8.50106        -0.000910      0.005431      0.003972
Pd     12.52608      8.33284     11.60317         0.013512      0.006179     -0.007504
Pd      8.76520     11.59026     13.38976        -0.001157     -0.006886      0.003318
Pd     13.91053     11.95300      8.96623        -0.003006     -0.002308      0.002024
Pd     12.94552     10.66215     13.04793         0.001337      0.001202      0.002128
Pd     14.79482     10.43514     11.09226        -0.000557      0.001172      0.001474
Pd     12.09185     10.87394     10.51848        -0.003004      0.000478      0.002837
Pd     11.45062     13.31843      9.89674        -0.002381      0.003008      0.009945
Pd     13.60423     12.90755     11.62742        -0.002796     -0.000010      0.002549
Pd     11.12269     12.59583     12.50802        -0.003336     -0.000674      0.003091
Pd     10.95028     11.05682     14.80182         0.006630      0.013113      0.002758
Pd     10.48860      9.77401     12.36573         0.005933     -0.010048      0.006108
Pd      9.07549      9.14186     14.39915         0.013412      0.006140      0.016064
Pd      8.83944     13.84505     11.97917        -0.009609     -0.004754      0.009491
