152
# total energy = -1110.37795087 eVH     10.35389      5.87395      7.64558        -0.356013     -0.142193      1.068640
H     10.62451     15.10445      7.64558         0.358835      0.082251      0.938877
H     10.62451      5.87395     13.33282        -0.319093     -0.697537     -1.385694
H     10.35389     15.10445     13.33282        -0.615908      0.410340     -0.327275
H      7.64558     10.35389      5.87395         0.542283     -0.530243     -0.087759
H      7.64558     10.62451     15.10445         0.372947     -0.240808      0.044870
H     13.33282     10.62451      5.87395        -0.549244      0.628968     -0.031583
H     13.33282     10.35389     15.10445        -0.528142      0.409569      0.163051
H      5.87395      7.64558     10.35389         0.146833      0.529376      0.033878
H     15.10445      7.64558     10.62451         0.431946      0.947113      0.262397
H      5.87395     13.33282     10.62451        -0.225074     -0.476482      0.362705
H     15.10445     13.33282     10.35389         0.029003     -0.305016     -0.385108
H      5.87395     10.35389      7.64558        -0.080710     -0.370581      1.441941
H     15.10445     10.62451      7.64558         0.212547      0.463787      1.294836
H      5.87395     10.62451     13.33282        -0.185999     -0.356628     -1.172898
H     15.10445     10.35389     13.33282         0.575496      0.933520     -1.525234
H     10.35389      7.64558      5.87395        -0.548693      0.505040     -0.182863
H     10.62451      7.64558     15.10445        -0.140602      0.504737      0.183568
H     10.62451     13.33282      5.87395         0.886352     -1.373777     -0.321679
H     10.35389     13.33282     15.10445         0.260339     -0.554845     -0.087524
H      7.64558      5.87395     10.35389         0.715201      0.172910     -0.152961
H      7.64558     15.10445     10.62451         1.979589      0.780416      0.211084
H     13.33282      5.87395     10.62451        -2.690439     -0.958824     -0.463821
H     13.33282     15.10445     10.35389        -0.877673     -0.048957     -0.251142
H     12.45634     12.45634     19.01126         0.271943      0.257954     -0.227151
H     19.01126     19.01126     19.01126        -0.266830     -0.254945     -0.238248
H     19.01126     12.45634     12.45634        -0.282968      0.281181      0.186712
H     12.45634     19.01126     12.45634         0.255944     -0.251239      0.236090
C     10.35284      5.61067      6.59456         0.085396     -0.501329     -1.234034
C     10.62556     15.36773      6.59456         0.170996      0.759549     -0.822442
C     10.62556      5.61067     14.38384         0.182374     -0.315407      1.805440
C     10.35284     15.36773     14.38384         0.105108      0.387482      1.805985
C      6.59456     10.35284      5.61067        -1.128733     -0.110557     -0.862511
C      6.59456     10.62556     15.36773        -0.694191     -0.102034      0.763068
C     14.38384     10.62556      5.61067         0.866570     -0.110936     -1.001742
C     14.38384     10.35284     15.36773         1.201808      0.166728      1.106624
C      5.61067      6.59456     10.35284        -0.675201     -0.856553     -0.176304
C     15.36773      6.59456     10.62556         1.969859     -0.251904     -0.183535
C      5.61067     14.38384     10.62556        -1.573939     -0.006905     -0.126642
C     15.36773     14.38384     10.35284         0.486568      0.068985      0.016214
C      5.61067     10.35284      6.59456        -0.275264      0.198804     -1.344161
C     15.36773     10.62556      6.59456         0.283202     -0.228939     -0.999699
C      5.61067     10.62556     14.38384        -0.263754      0.416337      1.445520
C     15.36773     10.35284     14.38384         0.052939     -0.443806      1.930557
C     10.35284      6.59456      5.61067        -0.183446     -0.890141     -0.685875
C     10.62556      6.59456     15.36773        -0.108266     -0.770826      1.052949
C     10.62556     14.38384      5.61067        -0.497059      2.017379     -0.776876
C     10.35284     14.38384     15.36773        -0.280275      1.427744      0.486826
C      6.59456      5.61067     10.35284        -0.966085     -0.412179      0.083752
C      6.59456     15.36773     10.62556        -1.303137      0.369302     -0.330215
C     14.38384      5.61067     10.62556         1.288653     -1.240932      0.176638
C     14.38384     15.36773     10.35284         0.435881      0.314739      0.070195
C     10.40319      3.19606      7.29314         0.001978      0.309982     -0.102141
C     10.35913      4.25547      6.23373         0.139390     -0.532935      0.018959
C      0.08601      7.29314      7.29314        -0.053176     -0.299722     -0.425082
C      0.13007      6.23373      6.23373        -0.122448      0.705817      0.032076
C      0.08601      3.19606      3.19606        -0.107498      1.630979      0.171605
C      0.13007      4.25547      4.25547        -0.086691     -0.402191     -1.232192
C     10.40319      7.29314      3.19606         0.016364     -0.429934      0.124978
C     10.35913      6.23373      4.25547         0.260965      0.081849     -0.506011
C      7.29314     10.40319      3.19606        -1.668273      0.006842      0.325759
C      6.23373     10.35913      4.25547         0.656235      0.076835     -0.609905
C      7.29314      0.08601      7.29314        -0.404912     -0.011866     -0.305962
C      6.23373      0.13007      6.23373         0.674537     -0.054816      0.264783
C      3.19606      0.08601      3.19606         0.656804     -0.016171      0.186035
C      4.25547      0.13007      4.25547        -0.372693     -0.073762     -0.524685
C      3.19606     10.40319      7.29314         0.370292      0.018899     -0.316044
C      4.25547     10.35913      6.23373        -0.725146      0.065507      0.367876
C      3.19606      7.29314     10.40319         0.295898     -0.212170     -0.006399
C      4.25547      6.23373     10.35913         0.047218      0.646124      0.091899
C      7.29314      7.29314      0.08601        -0.718960     -0.606352     -0.020149
C      6.23373      6.23373      0.13007         0.865683      1.131379     -0.073176
C      3.19606      3.19606      0.08601         0.814477      0.501883      0.009058
C      4.25547      4.25547      0.13007        -0.326928     -1.740355     -0.127077
C      7.29314      3.19606     10.40319        -0.330185      0.276168     -0.003541
C      6.23373      4.25547     10.35913         0.509980     -0.028988      0.229849
O     10.43466      3.58206      8.50569        -0.048137      0.182399      0.257952
O     10.54374     17.39634      8.50569         0.042058     -0.232382      0.484311
O     10.54374      3.58206     12.47271         0.084014     -0.062468     -0.037239
O     10.43466     17.39634     12.47271        -0.023159     -0.140925     -0.275820
O      8.50569     10.43466      3.58206         0.983789      0.184684      0.386283
O      8.50569     10.54374     17.39634         0.572317      0.084554     -0.228354
O     12.47271     10.54374      3.58206        -0.424140     -0.038270      0.186926
O     12.47271     10.43466     17.39634        -0.518047     -0.069845     -0.197230
O      3.58206      8.50569     10.43466         0.181960      0.432898     -0.030128
O     17.39634      8.50569     10.54374        -0.230052      0.715141      0.043968
O      3.58206     12.47271     10.54374         0.160528     -0.674098      0.025055
O     17.39634     12.47271     10.43466        -0.185549     -0.480466     -0.012032
O      3.58206     10.43466      8.50569         0.223113     -0.059586      0.401061
O     17.39634     10.54374      8.50569        -0.170606      0.036954      0.410532
O      3.58206     10.54374     12.47271         0.146599      0.021039     -0.306163
O     17.39634     10.43466     12.47271         0.070677     -0.049735     -0.083739
O     10.43466      8.50569      3.58206         0.000028      0.276050      0.181064
O     10.54374      8.50569     17.39634         0.070778      0.437345     -0.180436
O     10.54374     12.47271      3.58206        -0.222071     -0.967756      0.344410
O     10.43466     12.47271     17.39634        -0.084314     -0.450007     -0.245317
O      8.50569      3.58206     10.43466         0.494843      0.196134     -0.012123
O      8.50569     17.39634     10.54374         0.662734     -0.197715      0.022181
O     12.47271      3.58206     10.54374        -0.740961      0.278330      0.036507
O     12.47271     17.39634     10.43466        -0.438677     -0.202461     -0.044103
O     11.90042     11.90042     19.56718        -0.346143     -0.307484      0.259151
O     19.56718     19.56718     19.56718         0.325277      0.311729      0.282444
O     19.56718     11.90042     11.90042         0.276969     -0.276792     -0.140607
O     11.90042     19.56718     11.90042        -0.306291      0.286554     -0.233966
O      9.45224      1.03696      9.45224        -0.058677      0.071789     -0.047526
O      1.03696      9.45224      9.45224         0.035660     -0.073298     -0.072298
O      1.03696      1.03696      1.03696         0.058439      0.141364      0.102129
O      9.45224      9.45224      1.03696        -0.134756     -0.090881      0.102200
Zr     10.48920      2.52580     10.48920         0.152840     -0.166767     -0.162444
Zr     10.48920     18.45260     10.48920        -0.097114      0.180598     -0.044932
Zr     10.48920     10.48920      2.52580         0.332107     -0.309282     -0.197820
Zr     10.48920     10.48920     18.45260         0.006336     -0.086652      0.206932
Zr      2.52580     10.48920     10.48920        -0.067079      0.170385     -0.051261
Zr     18.45260     10.48920     10.48920         0.140244     -0.126795     -0.248912
Ir     12.05003     12.48434     10.46172        -0.006715      0.002513      0.009155
Ir     11.18767      7.41742     10.29884         0.023930     -0.002784     -0.031456
Ir      8.83293      7.37333     11.56612         0.011299     -0.016711     -0.014905
Ir      7.48242     11.65613      7.66015        -0.008018     -0.007935      0.003892
Ir     11.59315     12.08799      7.12350         0.006393      0.000885     -0.000412
Ir     13.75986      8.98792      7.55157         0.001478     -0.002231      0.000780
Ir     12.48761     13.95450      8.41994        -0.005999     -0.000994     -0.007092
Ir      9.72415     11.26274      5.56287         0.006793     -0.000816     -0.012163
Ir      9.08135     13.46595      7.07753        -0.000673     -0.008307     -0.003324
Ir      9.28119      9.66443      7.52528        -0.006230      0.000817     -0.007999
Ir     13.27577      7.04064     11.95421         0.008160     -0.000649      0.002413
Ir     13.58705      7.03486      9.11762         0.011599      0.013891     -0.012567
Ir     11.03528      7.60145     12.84428         0.007461     -0.008794     -0.009796
Ir     13.60969     11.56221      8.75570         0.000292      0.002428     -0.002028
Ir     11.50448      9.64845      6.23545         0.004460     -0.011105     -0.005552
Ir      7.15203      9.17499      8.94004        -0.000235     -0.010429     -0.012503
Ir     14.06232     11.43024     11.66045        -0.006640      0.009390     -0.003647
Ir     11.65471      9.85796      8.89207         0.008262     -0.020694     -0.013243
Ir      9.43319      9.51751     10.24730         0.012530     -0.004453     -0.012251
Ir     13.86623      9.40301     10.18703         0.002535      0.005306     -0.012588
Ir     13.81490      9.15820     12.90663         0.008449      0.001016     -0.009348
Ir     11.69032      9.76400     11.56663         0.004940      0.002450     -0.018205
Ir      9.91044     11.74752      8.97531         0.001865     -0.018360     -0.002456
Ir      9.06650      7.43545      8.82511         0.022827     -0.005292     -0.021405
Ir     11.55783      7.57001      7.77200         0.043591     -0.018213     -0.008949
Ir      9.25113      9.49036     13.01940         0.008153     -0.015098     -0.003416
Ir      7.51996     13.91322      8.99499        -0.004274     -0.008173      0.002441
Ir     10.88911     14.11399     11.95092        -0.010797     -0.010039     -0.000497
Ir     10.11960     14.16297      9.52347        -0.005169     -0.003182     -0.002205
Ir      9.79483     11.69626     11.72996         0.015377     -0.003716     -0.004716
Ir      7.58791     11.58335     10.21454        -0.001077     -0.010254     -0.008424
Ir      8.36035     13.75582     11.58743        -0.009342     -0.005859     -0.001349
Ir      7.52671     11.57767     12.83066        -0.007048     -0.016439      0.004738
Ir      9.76979     11.62314     14.34537         0.000861     -0.011699      0.007312
Ir     13.48585     13.88198     12.19129        -0.012724     -0.006212      0.001128
Ir     11.99525     12.05336     13.08630        -0.000820      0.004790     -0.018848
Ir     11.57406      9.80810     14.20612         0.004409     -0.012503     -0.006973
Ir      7.14791      9.37944     11.50045        -0.000228     -0.019510     -0.002155
