152
# total energy = -1093.15735923 eVH     10.35389      5.87395      7.64558        -0.042583     -0.115790      1.173370
H     10.62451     15.10445      7.64558        -0.171144      0.083196      1.379916
H     10.62451      5.87395     13.33282         0.146800     -0.036434     -1.066153
H     10.35389     15.10445     13.33282         0.022509     -0.052221     -0.877999
H      7.64558     10.35389      5.87395         0.529645      0.023747     -0.101863
H      7.64558     10.62451     15.10445         0.401511     -0.002413      0.006601
H     13.33282     10.62451      5.87395        -0.671480     -0.035299      0.000634
H     13.33282     10.35389     15.10445        -0.426194     -0.013314     -0.018451
H      5.87395      7.64558     10.35389        -0.142188      1.337518      0.048952
H     15.10445      7.64558     10.62451        -0.019106      0.443445      0.030786
H      5.87395     13.33282     10.62451        -0.078104     -0.225504      0.044232
H     15.10445     13.33282     10.35389         0.181432     -1.517140      0.093305
H      5.87395     10.35389      7.64558        -0.085554     -0.775851      0.494474
H     15.10445     10.62451      7.64558         0.454535      0.807706      0.228383
H      5.87395     10.62451     13.33282        -0.002456     -0.175710     -0.268540
H     15.10445     10.35389     13.33282        -0.066226      0.229327     -0.187196
H     10.35389      7.64558      5.87395        -0.116790      0.418307      0.099944
H     10.62451      7.64558     15.10445         0.054185      0.506089      0.278775
H     10.62451     13.33282      5.87395         0.091456     -0.413532     -0.192942
H     10.35389     13.33282     15.10445        -0.136029     -0.565567      0.174322
H      7.64558      5.87395     10.35389         0.492375     -0.036915     -0.049627
H      7.64558     15.10445     10.62451         0.301287      0.029524     -0.027940
H     13.33282      5.87395     10.62451        -0.196364     -0.081632     -0.006997
H     13.33282     15.10445     10.35389        -0.503534      0.089859     -0.019171
H     12.45634     12.45634     19.01126         0.265277      0.247857     -0.245085
H     19.01126     19.01126     19.01126        -0.263042     -0.242592     -0.252214
H     19.01126     12.45634     12.45634        -0.265421      0.261642      0.232961
H     12.45634     19.01126     12.45634         0.275324     -0.255257      0.226256
C     10.35284      5.61067      6.59456        -0.144236     -0.313788     -1.781389
C     10.62556     15.36773      6.59456         0.426979      0.131986     -1.854293
C     10.62556      5.61067     14.38384        -0.344898     -0.127188      1.708868
C     10.35284     15.36773     14.38384         0.223802      0.148653      1.628728
C      6.59456     10.35284      5.61067        -0.938970     -0.121525     -0.323858
C      6.59456     10.62556     15.36773        -0.825853     -0.006618      0.120618
C     14.38384     10.62556      5.61067         1.035291      0.043187     -0.238695
C     14.38384     10.35284     15.36773         0.767336     -0.024811      0.170368
C      5.61067      6.59456     10.35284        -0.099711     -1.666871      0.072299
C     15.36773      6.59456     10.62556         0.320274     -0.906988      0.037101
C      5.61067     14.38384     10.62556        -0.423903      0.803494      0.044015
C     15.36773     14.38384     10.35284         0.060478      1.803563     -0.069092
C      5.61067     10.35284      6.59456        -0.771257      0.296086     -1.846230
C     15.36773     10.62556      6.59456         0.731414     -0.215447     -1.931716
C      5.61067     10.62556     14.38384        -0.671546      0.089604      1.605849
C     15.36773     10.35284     14.38384         0.557343     -0.057957      1.395745
C     10.35284      6.59456      5.61067         0.029761     -1.539918     -0.744649
C     10.62556      6.59456     15.36773        -0.049663     -1.910969      0.696617
C     10.62556     14.38384      5.61067         0.086605      1.824489     -0.852009
C     10.35284     14.38384     15.36773         0.034298      1.850269      0.615207
C      6.59456      5.61067     10.35284        -0.890345     -0.811455     -0.034938
C      6.59456     15.36773     10.62556        -1.025400      0.573041      0.073751
C     14.38384      5.61067     10.62556         0.950185     -0.679613      0.088613
C     14.38384     15.36773     10.35284         0.880821      0.875508     -0.005398
C     10.40319      3.19606      7.29314        -0.004696      0.526936     -0.578500
C     10.35913      4.25547      6.23373        -0.009229     -0.828071      0.535407
C      0.08601      7.29314      7.29314         0.014259     -0.461534     -0.572388
C      0.13007      6.23373      6.23373         0.060005      0.846019      0.447846
C      0.08601      3.19606      3.19606         0.027676      0.689365      0.461627
C      0.13007      4.25547      4.25547        -0.040724     -0.733904     -0.483970
C     10.40319      7.29314      3.19606        -0.017643     -0.821478      0.480752
C     10.35913      6.23373      4.25547         0.009457      0.562650     -0.510656
C      7.29314     10.40319      3.19606        -0.315335     -0.006507      0.497384
C      6.23373     10.35913      4.25547         0.188774     -0.078642     -0.147783
C      7.29314      0.08601      7.29314        -0.253647     -0.031674     -0.379305
C      6.23373      0.13007      6.23373         0.156736     -0.095627      0.371614
C      3.19606      0.08601      3.19606         0.420970      0.013266      0.483338
C      4.25547      0.13007      4.25547        -0.207697      0.069933     -0.195310
C      3.19606     10.40319      7.29314         0.219471      0.034513     -0.508732
C      4.25547     10.35913      6.23373        -0.188481      0.105653      0.341189
C      3.19606      7.29314     10.40319         0.170011     -0.318702      0.009873
C      4.25547      6.23373     10.35913        -0.571892      0.174621      0.053216
C      7.29314      7.29314      0.08601        -0.587233     -0.465488      0.003438
C      6.23373      6.23373      0.13007         0.119919      0.191991     -0.057998
C      3.19606      3.19606      0.08601         0.557754      0.463687      0.004930
C      4.25547      4.25547      0.13007        -0.067587     -0.101313     -0.036136
C      7.29314      3.19606     10.40319        -0.217873      0.335246      0.011363
C      6.23373      4.25547     10.35913         0.593013     -0.246754      0.018325
O     10.43466      3.58206      8.50569         0.016409      0.238355      0.499769
O     10.54374     17.39634      8.50569        -0.028527     -0.239790      0.516632
O     10.54374      3.58206     12.47271         0.081134      0.159788     -0.396394
O     10.43466     17.39634     12.47271        -0.100832     -0.116639     -0.353633
O      8.50569     10.43466      3.58206         0.413948     -0.021978      0.075691
O      8.50569     10.54374     17.39634         0.470569      0.059448     -0.124883
O     12.47271     10.54374      3.58206        -0.501520     -0.009666      0.093288
O     12.47271     10.43466     17.39634        -0.415393     -0.054142     -0.102900
O      3.58206      8.50569     10.43466         0.165596      0.424062     -0.056251
O     17.39634      8.50569     10.54374        -0.088923      0.563447      0.048547
O      3.58206     12.47271     10.54374         0.048787     -0.534401      0.038665
O     17.39634     12.47271     10.43466        -0.174116     -0.452972     -0.025349
O      3.58206     10.43466      8.50569         0.188725     -0.014448      0.494065
O     17.39634     10.54374      8.50569        -0.123616     -0.009165      0.458780
O      3.58206     10.54374     12.47271         0.178519      0.088774     -0.484846
O     17.39634     10.43466     12.47271        -0.190684     -0.081273     -0.525884
O     10.43466      8.50569      3.58206         0.047187      0.664825      0.270609
O     10.54374      8.50569     17.39634         0.057114      0.488958     -0.209812
O     10.54374     12.47271      3.58206        -0.019198     -0.632520      0.267140
O     10.43466     12.47271     17.39634        -0.033254     -0.525024     -0.218592
O      8.50569      3.58206     10.43466         0.516623      0.151886     -0.030951
O      8.50569     17.39634     10.54374         0.622392     -0.095859      0.045341
O     12.47271      3.58206     10.54374        -0.625207      0.101788      0.035319
O     12.47271     17.39634     10.43466        -0.483336     -0.138395     -0.017170
O     11.90042     11.90042     19.56718        -0.306881     -0.283775      0.271160
O     19.56718     19.56718     19.56718         0.315836      0.270394      0.290464
O     19.56718     11.90042     11.90042         0.324333     -0.307273     -0.235792
O     11.90042     19.56718     11.90042        -0.328523      0.280778     -0.223666
O      9.45224      1.03696      9.45224        -0.030555      0.061008     -0.065429
O      1.03696      9.45224      9.45224         0.037499     -0.079859     -0.058453
O      1.03696      1.03696      1.03696         0.034482      0.051423      0.131044
O      9.45224      9.45224      1.03696        -0.023875     -0.089340      0.134693
Zr     10.48920      2.52580     10.48920        -0.106805     -0.130835     -0.011430
Zr     10.48920     18.45260     10.48920         0.109297      0.188792     -0.102622
Zr     10.48920     10.48920      2.52580        -0.008903      0.112321     -0.320866
Zr     10.48920     10.48920     18.45260        -0.034888     -0.015142      0.144459
Zr      2.52580     10.48920     10.48920        -0.049608     -0.029241     -0.049322
Zr     18.45260     10.48920     10.48920         0.089456      0.109305     -0.143723
Pd     12.91006      8.09313      7.61013        -0.012772     -0.009712     -0.006904
Pd      9.57495     14.56821     11.75408         0.001351     -0.010278      0.004783
Pd     12.30367     10.86528     10.41560         0.000585      0.013264     -0.011351
Pd     14.63204      9.94832     11.58474        -0.007894      0.004183     -0.014846
Pd     10.91541      9.33336      6.10611        -0.009538     -0.007035     -0.001113
Pd      6.88625      8.54974      8.97231        -0.019659     -0.015305      0.012824
Ir     10.24247     11.83937     11.75139         0.003583      0.008608     -0.018908
Ir     12.87457      8.26115     10.28953         0.000460     -0.009526      0.004824
Ir     12.28039     10.96941      7.71386        -0.007204      0.007826      0.000668
Ir      9.68154     14.38582      9.16225         0.020122      0.006375      0.004580
Ir     10.76312      9.16714     11.69647         0.004888      0.030801     -0.018267
Ir      8.66155     10.08459      7.75061         0.012617     -0.000749     -0.003886
Ir     13.85422     12.48741      9.04233        -0.005781      0.000540     -0.004994
Ir     11.96381     13.55334      7.82308         0.001609     -0.005571     -0.005620
Ir     14.27323      9.87669      9.00420         0.001312     -0.002977     -0.001136
Ir      9.16543      7.44040     10.35864        -0.012848     -0.006762      0.006932
Ir      8.15166     12.77066      7.82974         0.004440     -0.002665      0.020840
Ir      9.10803      7.60815      7.79539        -0.007489      0.001830      0.006834
Ir     11.85852     13.48339     13.02470         0.015937      0.015285     -0.004373
Ir     11.34150      6.66924     11.68090         0.010380     -0.005725      0.007537
Ir     10.22914     11.81448      9.07463        -0.006234      0.001254     -0.018277
Ir     12.85662      8.29907     12.94920         0.008457     -0.008995     -0.008033
Ir     10.78277      9.15239      8.95972        -0.003849     -0.003991     -0.005210
Ir     11.79095     13.56728     10.41826        -0.010749     -0.007811     -0.013381
Ir     13.82919     12.56917     11.77622        -0.013051      0.007199      0.000589
Ir     12.35565     10.95900     13.07706         0.001152     -0.014761     -0.000989
Ir     10.10038     11.72202      6.48781        -0.004961      0.014904     -0.004922
Ir     11.27872      6.57061      9.18195        -0.012531     -0.001409      0.001354
Ir      7.16018      8.36747     11.78844        -0.000648      0.005714     -0.022541
Ir      8.16532     12.71193     10.43086         0.009649     -0.014005     -0.005994
Ir     10.85012      9.25231     14.25503        -0.002171      0.010241      0.002490
Ir      8.07105     12.53301     12.98541         0.005568      0.017073     -0.008641
Ir      6.54101     11.28488      9.05751         0.009077      0.028221     -0.006705
Ir      8.62722     10.04304     13.03874        -0.013241      0.000927      0.011020
Ir      6.55004     10.91842     11.51903        -0.013344     -0.001207      0.013111
Ir      9.09809      7.46413     13.02382        -0.004111     -0.018194      0.007357
Ir     10.17760     11.64803     14.35473         0.007743     -0.000030      0.000201
Ir      8.68781     10.06465     10.38803         0.000946      0.004879     -0.001324
