152
# total energy = -1093.15773765 eVH     10.35389      5.87395      7.64558        -0.042668     -0.115574      1.173294
H     10.62451     15.10445      7.64558        -0.171331      0.083295      1.379781
H     10.62451      5.87395     13.33282         0.146621     -0.036373     -1.067027
H     10.35389     15.10445     13.33282         0.022291     -0.052023     -0.878602
H      7.64558     10.35389      5.87395         0.529524      0.023809     -0.101614
H      7.64558     10.62451     15.10445         0.401622     -0.002157      0.006889
H     13.33282     10.62451      5.87395        -0.671743     -0.035288      0.000879
H     13.33282     10.35389     15.10445        -0.426149     -0.013242     -0.018474
H      5.87395      7.64558     10.35389        -0.143468      1.338354      0.049745
H     15.10445      7.64558     10.62451        -0.019180      0.443384      0.030800
H      5.87395     13.33282     10.62451        -0.078039     -0.225121      0.044267
H     15.10445     13.33282     10.35389         0.180513     -1.517285      0.092966
H      5.87395     10.35389      7.64558        -0.085085     -0.775772      0.495164
H     15.10445     10.62451      7.64558         0.454136      0.807840      0.229040
H      5.87395     10.62451     13.33282        -0.002753     -0.175980     -0.267989
H     15.10445     10.35389     13.33282        -0.066549      0.228902     -0.187940
H     10.35389      7.64558      5.87395        -0.117522      0.416827      0.099983
H     10.62451      7.64558     15.10445         0.054309      0.507032      0.278441
H     10.62451     13.33282      5.87395         0.092275     -0.412313     -0.193534
H     10.35389     13.33282     15.10445        -0.135931     -0.565647      0.174580
H      7.64558      5.87395     10.35389         0.492197     -0.037396     -0.049591
H      7.64558     15.10445     10.62451         0.301054      0.029268     -0.027969
H     13.33282      5.87395     10.62451        -0.196601     -0.081718     -0.007193
H     13.33282     15.10445     10.35389        -0.503489      0.089900     -0.019116
H     12.45634     12.45634     19.01126         0.265168      0.247890     -0.245109
H     19.01126     19.01126     19.01126        -0.263174     -0.242556     -0.252228
H     19.01126     12.45634     12.45634        -0.265561      0.261688      0.232974
H     12.45634     19.01126     12.45634         0.275210     -0.255224      0.226243
C     10.35284      5.61067      6.59456        -0.144743     -0.313799     -1.781830
C     10.62556     15.36773      6.59456         0.427245      0.131870     -1.854622
C     10.62556      5.61067     14.38384        -0.345698     -0.126929      1.709221
C     10.35284     15.36773     14.38384         0.224195      0.148283      1.628977
C      6.59456     10.35284      5.61067        -0.938867     -0.121503     -0.323647
C      6.59456     10.62556     15.36773        -0.826255     -0.006636      0.120487
C     14.38384     10.62556      5.61067         1.034875      0.043066     -0.238815
C     14.38384     10.35284     15.36773         0.767212     -0.024804      0.170402
C      5.61067      6.59456     10.35284        -0.100209     -1.668135      0.072197
C     15.36773      6.59456     10.62556         0.320505     -0.907016      0.037104
C      5.61067     14.38384     10.62556        -0.424077      0.803103      0.044025
C     15.36773     14.38384     10.35284         0.060094      1.803007     -0.068938
C      5.61067     10.35284      6.59456        -0.771085      0.296031     -1.844994
C     15.36773     10.62556      6.59456         0.730822     -0.215482     -1.931658
C      5.61067     10.62556     14.38384        -0.671980      0.089837      1.606864
C     15.36773     10.35284     14.38384         0.556890     -0.057815      1.395249
C     10.35284      6.59456      5.61067         0.029818     -1.540096     -0.745191
C     10.62556      6.59456     15.36773        -0.049745     -1.910233      0.696119
C     10.62556     14.38384      5.61067         0.086035      1.825092     -0.852266
C     10.35284     14.38384     15.36773         0.033891      1.850296      0.614442
C      6.59456      5.61067     10.35284        -0.891270     -0.812611     -0.035187
C      6.59456     15.36773     10.62556        -1.024644      0.572511      0.073641
C     14.38384      5.61067     10.62556         0.950324     -0.679813      0.088526
C     14.38384     15.36773     10.35284         0.880415      0.875114     -0.005344
C     10.40319      3.19606      7.29314        -0.004718      0.526499     -0.578622
C     10.35913      4.25547      6.23373        -0.009270     -0.828126      0.535456
C      0.08601      7.29314      7.29314         0.014089     -0.461146     -0.572621
C      0.13007      6.23373      6.23373         0.059784      0.846179      0.448206
C      0.08601      3.19606      3.19606         0.027356      0.689724      0.461563
C      0.13007      4.25547      4.25547        -0.040879     -0.734463     -0.484132
C     10.40319      7.29314      3.19606        -0.017605     -0.821908      0.480630
C     10.35913      6.23373      4.25547         0.009506      0.562793     -0.510519
C      7.29314     10.40319      3.19606        -0.315795     -0.006441      0.497156
C      6.23373     10.35913      4.25547         0.188723     -0.078542     -0.147688
C      7.29314      0.08601      7.29314        -0.253423     -0.031656     -0.379347
C      6.23373      0.13007      6.23373         0.156790     -0.095719      0.371461
C      3.19606      0.08601      3.19606         0.420813      0.013346      0.483461
C      4.25547      0.13007      4.25547        -0.207885      0.070032     -0.195558
C      3.19606     10.40319      7.29314         0.219253      0.034603     -0.508585
C      4.25547     10.35913      6.23373        -0.188665      0.105652      0.340964
C      3.19606      7.29314     10.40319         0.169998     -0.318807      0.009825
C      4.25547      6.23373     10.35913        -0.572354      0.174787      0.053180
C      7.29314      7.29314      0.08601        -0.587300     -0.465391      0.003403
C      6.23373      6.23373      0.13007         0.119817      0.191848     -0.058077
C      3.19606      3.19606      0.08601         0.557541      0.463780      0.004911
C      4.25547      4.25547      0.13007        -0.067643     -0.101297     -0.036152
C      7.29314      3.19606     10.40319        -0.217921      0.335470      0.011305
C      6.23373      4.25547     10.35913         0.593133     -0.246495      0.018441
O     10.43466      3.58206      8.50569         0.016239      0.238367      0.499884
O     10.54374     17.39634      8.50569        -0.028656     -0.240039      0.517025
O     10.54374      3.58206     12.47271         0.081039      0.159610     -0.396107
O     10.43466     17.39634     12.47271        -0.100986     -0.116617     -0.353509
O      8.50569     10.43466      3.58206         0.414192     -0.021977      0.075922
O      8.50569     10.54374     17.39634         0.470317      0.059487     -0.124899
O     12.47271     10.54374      3.58206        -0.501607     -0.009655      0.093202
O     12.47271     10.43466     17.39634        -0.415437     -0.054088     -0.102812
O      3.58206      8.50569     10.43466         0.165432      0.424094     -0.056290
O     17.39634      8.50569     10.54374        -0.088891      0.563312      0.048537
O      3.58206     12.47271     10.54374         0.048976     -0.534634      0.038674
O     17.39634     12.47271     10.43466        -0.174331     -0.452873     -0.025317
O      3.58206     10.43466      8.50569         0.188871     -0.014375      0.494181
O     17.39634     10.54374      8.50569        -0.123665     -0.009147      0.458667
O      3.58206     10.54374     12.47271         0.178616      0.088897     -0.485113
O     17.39634     10.43466     12.47271        -0.190625     -0.081147     -0.525702
O     10.43466      8.50569      3.58206         0.047032      0.665218      0.270742
O     10.54374      8.50569     17.39634         0.056947      0.488652     -0.209522
O     10.54374     12.47271      3.58206        -0.019426     -0.632910      0.267481
O     10.43466     12.47271     17.39634        -0.033342     -0.524698     -0.218497
O      8.50569      3.58206     10.43466         0.516317      0.151796     -0.030937
O      8.50569     17.39634     10.54374         0.622525     -0.096092      0.045302
O     12.47271      3.58206     10.54374        -0.625093      0.101517      0.035249
O     12.47271     17.39634     10.43466        -0.483521     -0.138361     -0.017120
O     11.90042     11.90042     19.56718        -0.306956     -0.283766      0.271202
O     19.56718     19.56718     19.56718         0.315773      0.270397      0.290543
O     19.56718     11.90042     11.90042         0.324262     -0.307292     -0.235804
O     11.90042     19.56718     11.90042        -0.328630      0.280737     -0.223629
O      9.45224      1.03696      9.45224        -0.030693      0.061049     -0.065336
O      1.03696      9.45224      9.45224         0.037406     -0.079908     -0.058373
O      1.03696      1.03696      1.03696         0.034336      0.051431      0.131103
O      9.45224      9.45224      1.03696        -0.023962     -0.089350      0.134762
Zr     10.48920      2.52580     10.48920        -0.106837     -0.130811     -0.011449
Zr     10.48920     18.45260     10.48920         0.109143      0.188935     -0.102695
Zr     10.48920     10.48920      2.52580        -0.008984      0.112441     -0.321177
Zr     10.48920     10.48920     18.45260        -0.035000     -0.015162      0.144308
Zr      2.52580     10.48920     10.48920        -0.049850     -0.029224     -0.049632
Zr     18.45260     10.48920     10.48920         0.089323      0.109219     -0.143747
Pd     12.90966      8.09282      7.60990        -0.011572     -0.008898     -0.005735
Pd      9.57505     14.56793     11.75428         0.000451     -0.009429      0.002869
Pd     12.30371     10.86567     10.41521         0.002244      0.006390     -0.009648
Pd     14.63172      9.94848     11.58435        -0.006352      0.004764     -0.012524
Pd     10.91496      9.33314      6.10605        -0.008485     -0.002133      0.000548
Pd      6.88565      8.54941      8.97260        -0.016291     -0.009176      0.009387
Ir     10.24261     11.83953     11.75082         0.002950      0.009900     -0.004738
Ir     12.87452      8.26091     10.28963         0.000948     -0.005060      0.001784
Ir     12.28013     10.96962      7.71376        -0.002631      0.001645     -0.002312
Ir      9.68211     14.38597      9.16248         0.015032      0.007189      0.003145
Ir     10.76321      9.16796     11.69583         0.001764      0.015610     -0.005007
Ir      8.66173     10.08462      7.75058         0.007388     -0.005214     -0.007006
Ir     13.85414     12.48739      9.04194        -0.000793      0.002059     -0.001046
Ir     11.96383     13.55321      7.82293         0.000986     -0.001458     -0.008280
Ir     14.27322      9.87653      9.00403        -0.001193     -0.004155     -0.002791
Ir      9.16509      7.44020     10.35888        -0.005448     -0.000296      0.009896
Ir      8.15184     12.77065      7.83025        -0.000964      0.005747      0.008291
Ir      9.10776      7.60814      7.79568        -0.008677      0.000493      0.003898
Ir     11.85888     13.48372     13.02451         0.012960      0.006762     -0.007008
Ir     11.34173      6.66914     11.68114         0.003859      0.001112      0.004188
Ir     10.22898     11.81451      9.07415        -0.000813     -0.000221     -0.014669
Ir     12.85680      8.29899     12.94904         0.006856     -0.007591     -0.006403
Ir     10.78261      9.15229      8.95948         0.000162     -0.004332     -0.001299
Ir     11.79089     13.56700     10.41790        -0.010931     -0.001504     -0.009829
Ir     13.82895     12.56945     11.77620        -0.007398      0.007750      0.001263
Ir     12.35574     10.95870     13.07685         0.001072     -0.011140      0.000949
Ir     10.10015     11.72233      6.48771        -0.003465      0.010734     -0.007864
Ir     11.27840      6.57055      9.18205        -0.012014     -0.002825      0.001429
Ir      7.15996      8.36762     11.78788         0.005698      0.004204     -0.014003
Ir      8.16556     12.71164     10.43069         0.004351     -0.008583      0.000349
Ir     10.84999      9.25259     14.25502        -0.004330      0.006536     -0.003305
Ir      8.07120     12.53335     12.98529         0.007627      0.012379     -0.010768
Ir      6.54122     11.28565      9.05729         0.005039      0.018001     -0.000756
Ir      8.62682     10.04301     13.03893        -0.004536      0.001309      0.004141
Ir      6.54968     10.91852     11.51932        -0.004625     -0.000804      0.004022
Ir      9.09786      7.46371     13.02408        -0.003453     -0.009018     -0.001035
Ir     10.17780     11.64804     14.35467         0.007176      0.000766     -0.005336
Ir      8.68785     10.06475     10.38792        -0.005613      0.002877      0.004000
