26
# total energy = -208.94803766 eVC      8.64636      1.68613      0.00000         0.002645      0.035865     -0.000000
C      0.69006      7.65029     -0.00000        -0.002645     -0.035865      0.000000
C      7.65029      8.64636      0.00000        -0.035865      0.002645     -0.000000
C      1.68613      0.69006     -0.00000         0.035865     -0.002645     -0.000000
C      0.69006      1.68613      0.00000        -0.002645      0.035865      0.000000
C      8.64636      7.65029     -0.00000         0.002645     -0.035865     -0.000000
C      1.68613      8.64636     -0.00000         0.035865      0.002645      0.000000
C      7.65029      0.69006     -0.00000        -0.035865     -0.002645      0.000000
C      8.03883      2.98062     -0.00000         0.037119     -0.078859     -0.000000
C      1.29759      6.35580     -0.00000        -0.037119      0.078859      0.000000
C      6.35580      8.03883     -0.00000         0.078859      0.037119     -0.000000
C      2.98062      1.29759     -0.00000        -0.078859     -0.037119     -0.000000
C      1.29759      2.98062      0.00000        -0.037119     -0.078859      0.000000
C      8.03883      6.35580      0.00000         0.037119      0.078859     -0.000000
C      2.98062      8.03883     -0.00000        -0.078859      0.037119      0.000000
C      6.35580      1.29759     -0.00000         0.078859     -0.037119      0.000000
N      2.66857      6.66785      0.00000         0.013064     -0.013064     -0.000000
N      6.66785      2.66857     -0.00000        -0.013064      0.013064     -0.000000
N      2.66857      2.66857     -0.00000         0.013064      0.013064      0.000000
N      6.66785      6.66785      0.00000        -0.013064     -0.013064      0.000000
Ir     -0.00000      4.66821      0.00000        -0.000000      0.000000      0.000000
Ir      4.66821      0.00000      0.00000         0.000000      0.000000      0.000000
Ir      4.66821      6.43586      0.00000         0.000000      0.109031      0.000000
Ir      4.66821      2.90056      0.00000        -0.000000     -0.109031      0.000000
Ir      2.90056      4.66821     -0.00000        -0.109031      0.000000     -0.000000
Ir      6.43586      4.66821      0.00000         0.109031      0.000000     -0.000000
