10
# total energy = -65.10016834 eVH      2.09471      1.08489      7.50000         0.007282      0.003771     -0.000000
H      3.42963      1.77627      7.50000        -0.007282     -0.003771      0.000000
C      4.38585      2.27151      7.50000        -0.001258     -0.000652     -0.000000
C      1.13850      0.58965      7.50000         0.001258      0.000652      0.000000
N      0.06994      1.38268      7.50000        -0.000122     -0.005872      0.000000
N      5.45440      1.47849      7.50000         0.000122      0.005872      0.000000
N      1.16966     -0.74066      7.50000        -0.004866      0.003288      0.000000
N      4.35468      3.60182      7.50000         0.004866     -0.003288      0.000000
Pd      2.76217     -1.95131      7.50000         0.000000      0.000000      0.000000
Pd      0.00000      3.38190      7.50000         0.000000      0.000000      0.000000
