26
# total energy = -205.61005297 eVC      0.70391      1.25150      7.50000        -0.005850     -0.002562      0.000000
C     10.79511      6.56634      7.50000         0.015268      0.004524     -0.000000
C      0.73781     11.42976      7.50000        -0.002775     -0.006101     -0.000000
C     11.53024      5.33392      7.50000         0.005850      0.002562      0.000000
C      1.43904      0.01908      7.50000        -0.015268     -0.004524     -0.000000
C     11.49634     -4.84434      7.50000         0.002775      0.006101     -0.000000
C     10.79630     -3.65087      7.50000        -0.009766      0.020537      0.000000
C     10.85629      4.12533      7.50000        -0.017019     -0.031491      0.000000
C      2.82791      0.04240      7.50000         0.078667      0.011541     -0.000000
C      1.43785     10.23629      7.50000         0.009766     -0.020537     -0.000000
C      1.37786      2.46010      7.50000         0.017019      0.031491     -0.000000
C      9.40624      6.54302      7.50000        -0.078667     -0.011541     -0.000000
N      7.76658      0.25884      7.50000        -0.012370      0.007567     -0.000000
N      4.46757      6.32658      7.50000         0.012370     -0.007567     -0.000000
N      4.01116      0.08461      7.50000        -0.083520     -0.006924      0.000000
N     10.22924     -2.61229      7.50000         0.009044      0.009519     -0.000000
N     10.29528      3.08329      7.50000         0.014216      0.014677     -0.000000
N      8.22299      6.50081      7.50000         0.083520      0.006924      0.000000
N      2.00491      9.19771      7.50000        -0.009044     -0.009519      0.000000
N      1.93887      3.50213      7.50000        -0.014216     -0.014677     -0.000000
Ir      2.98867      7.53175      7.50000         0.010309      0.027294     -0.000000
Ir      2.97997      5.13168      7.50000        -0.005983     -0.027712     -0.000000
Ir      6.29486      6.40820      7.50000         0.030176      0.003649     -0.000000
Ir      9.24548     -0.94632      7.50000        -0.010309     -0.027294     -0.000000
Ir      9.25418      1.45374      7.50000         0.005983      0.027712     -0.000000
Ir      5.93929      0.17723      7.50000        -0.030176     -0.003649     -0.000000
