152
# total energy = -1023.27954530 eVH     10.35389      5.87395      7.64558         0.486834      0.082227      0.710783
H     10.62451     15.10445      7.64558        -0.102181     -0.066196      0.795113
H     10.62451      5.87395     13.33282         0.147503      0.130070     -0.634533
H     10.35389     15.10445     13.33282        -0.186244     -0.113793     -0.548315
H      7.64558     10.35389      5.87395         0.312416     -0.021458      0.194566
H      7.64558     10.62451     15.10445         0.665348     -0.226389     -0.129990
H     13.33282     10.62451      5.87395        -0.758816     -0.134079      0.203549
H     13.33282     10.35389     15.10445        -0.457045     -0.113647     -0.051327
H      5.87395      7.64558     10.35389         0.210852      1.086273     -0.256858
H     15.10445      7.64558     10.62451        -0.172777      0.462011     -0.113582
H      5.87395     13.33282     10.62451         0.162027     -0.430236     -0.066233
H     15.10445     13.33282     10.35389        -0.127296     -0.911877      0.017160
H      5.87395     10.35389      7.64558         0.136059      0.095646      0.461616
H     15.10445     10.62451      7.64558         0.095481      0.001330      1.091400
H      5.87395     10.62451     13.33282         0.191605     -0.035003     -0.391274
H     15.10445     10.35389     13.33282        -0.115640     -0.055219     -0.561121
H     10.35389      7.64558      5.87395         0.119042      0.890565      0.192534
H     10.62451      7.64558     15.10445        -0.004624      0.495074     -0.165282
H     10.62451     13.33282      5.87395        -0.023232     -0.596395      0.230774
H     10.35389     13.33282     15.10445        -0.313645     -0.886273     -0.118759
H      7.64558      5.87395     10.35389         0.440056      0.096871     -0.049259
H      7.64558     15.10445     10.62451         0.858730     -0.277645      0.039579
H     13.33282      5.87395     10.62451        -0.455076      0.184317     -0.064979
H     13.33282     15.10445     10.35389        -0.656844     -0.095747      0.162966
H     12.45634     12.45634     19.01126         0.252545      0.265098     -0.229029
H     19.01126     19.01126     19.01126        -0.251299     -0.232731     -0.260573
H     19.01126     12.45634     12.45634        -0.237525      0.273025      0.238373
H     12.45634     19.01126     12.45634         0.224561     -0.264670      0.250216
C     10.35284      5.61067      6.59456        -0.195431     -0.370663     -0.019679
C     10.62556     15.36773      6.59456         0.062622      0.381344     -1.179689
C     10.62556      5.61067     14.38384        -0.055223     -0.231912      0.798185
C     10.35284     15.36773     14.38384         0.053625      0.884407      0.395321
C      6.59456     10.35284      5.61067        -0.372954     -0.036481     -0.175417
C      6.59456     10.62556     15.36773        -0.857083      0.212383      0.375111
C     14.38384     10.62556      5.61067         0.440346      0.293487     -0.509011
C     14.38384     10.35284     15.36773         0.791443     -0.118917      0.444683
C      5.61067      6.59456     10.35284        -0.310494     -0.646710      0.423880
C     15.36773      6.59456     10.62556         0.171437     -0.519679      0.073431
C      5.61067     14.38384     10.62556        -0.144872      0.397305     -0.022181
C     15.36773     14.38384     10.35284         0.396479     -0.050653     -0.110989
C      5.61067     10.35284      6.59456        -0.257066     -0.017197     -0.780890
C     15.36773     10.62556      6.59456         0.603806     -0.281072     -1.339629
C      5.61067     10.62556     14.38384        -0.351782      0.001357      0.426468
C     15.36773     10.35284     14.38384         0.502977     -0.168383      1.146644
C     10.35284      6.59456      5.61067        -0.168794     -0.500502     -0.444102
C     10.62556      6.59456     15.36773         0.052084     -0.592243      0.261181
C     10.62556     14.38384      5.61067         0.114048      1.019568     -0.484435
C     10.35284     14.38384     15.36773         0.241777      0.579036      0.556699
C      6.59456      5.61067     10.35284        -0.100213     -0.806976      0.073694
C      6.59456     15.36773     10.62556        -1.511911      0.403988      0.104042
C     14.38384      5.61067     10.62556         0.651850     -0.269555     -0.013518
C     14.38384     15.36773     10.35284        -0.435780      0.683082     -0.312151
C     10.40319      3.19606      7.29314         0.008394      0.852285     -0.299371
C     10.35913      4.25547      6.23373        -0.050391     -0.461298      0.522247
C      0.08601      7.29314      7.29314        -0.007094     -0.272428     -0.492994
C      0.13007      6.23373      6.23373         0.026847      0.129928      0.200538
C      0.08601      3.19606      3.19606        -0.011778      0.688673      0.196769
C      0.13007      4.25547      4.25547        -0.091070     -0.184112     -0.204514
C     10.40319      7.29314      3.19606        -0.006649     -0.669954      0.555421
C     10.35913      6.23373      4.25547        -0.038382      0.290028     -0.612566
C      7.29314     10.40319      3.19606        -0.341475      0.028165      0.924661
C      6.23373     10.35913      4.25547         0.180872      0.032460     -0.123799
C      7.29314      0.08601      7.29314        -0.316114     -0.039755     -0.296823
C      6.23373      0.13007      6.23373         0.340242     -0.053846      0.335253
C      3.19606      0.08601      3.19606         0.545138     -0.035156      0.698158
C      4.25547      0.13007      4.25547        -0.091143     -0.035288     -0.380748
C      3.19606     10.40319      7.29314         0.728220      0.001333     -0.407676
C      4.25547     10.35913      6.23373        -0.161711      0.035029      0.093105
C      3.19606      7.29314     10.40319         0.657254     -1.290656     -0.010367
C      4.25547      6.23373     10.35913        -0.639968      0.913774      0.084545
C      7.29314      7.29314      0.08601        -0.656912     -0.186415     -0.019102
C      6.23373      6.23373      0.13007         0.209641      0.202901      0.013314
C      3.19606      3.19606      0.08601         0.266022      0.291437     -0.020986
C      4.25547      4.25547      0.13007        -0.072452     -0.037740     -0.000743
C      7.29314      3.19606     10.40319        -0.363649      0.989310      0.015885
C      6.23373      4.25547     10.35913         1.062594     -0.025159      0.014525
O     10.43466      3.58206      8.50569        -0.043359      0.043890      0.384791
O     10.54374     17.39634      8.50569        -0.036908     -0.165531      0.576433
O     10.54374      3.58206     12.47271         0.051342      0.049514     -0.299374
O     10.43466     17.39634     12.47271        -0.011810     -0.134191     -0.623510
O      8.50569     10.43466      3.58206         0.362496     -0.025368     -0.025030
O      8.50569     10.54374     17.39634         0.476264      0.045250     -0.147193
O     12.47271     10.54374      3.58206        -0.494830      0.012372      0.085517
O     12.47271     10.43466     17.39634        -0.811342      0.001827     -0.196526
O      3.58206      8.50569     10.43466         0.116750      1.052036      0.017088
O     17.39634      8.50569     10.54374        -0.035948      0.319881      0.074375
O      3.58206     12.47271     10.54374         0.072395     -0.460766      0.050554
O     17.39634     12.47271     10.43466        -0.174916     -0.886691      0.053817
O      3.58206     10.43466      8.50569        -0.064978     -0.070351      0.320540
O     17.39634     10.54374      8.50569        -0.129492      0.042413      0.459845
O      3.58206     10.54374     12.47271         0.083410     -0.023003     -0.628287
O     17.39634     10.43466     12.47271        -0.182917      0.052402     -0.771783
O     10.43466      8.50569      3.58206         0.030367      0.661705      0.157761
O     10.54374      8.50569     17.39634         0.062660      0.458669     -0.087304
O     10.54374     12.47271      3.58206        -0.017668     -0.764118      0.237937
O     10.43466     12.47271     17.39634         0.034904     -0.863677     -0.243057
O      8.50569      3.58206     10.43466         0.448778      0.025631     -0.037858
O      8.50569     17.39634     10.54374         0.677965     -0.262201     -0.058386
O     12.47271      3.58206     10.54374        -0.462194      0.152445      0.043263
O     12.47271     17.39634     10.43466        -0.537668     -0.015828     -0.008731
O     11.90042     11.90042     19.56718        -0.292720     -0.314619      0.255152
O     19.56718     19.56718     19.56718         0.283668      0.266539      0.311189
O     19.56718     11.90042     11.90042         0.262569     -0.321884     -0.238701
O     11.90042     19.56718     11.90042        -0.271029      0.280200     -0.265124
O      9.45224      1.03696      9.45224        -0.081891      0.042232     -0.068768
O      1.03696      9.45224      9.45224         0.017667     -0.166393     -0.098242
O      1.03696      1.03696      1.03696         0.001842      0.070770      0.183485
O      9.45224      9.45224      1.03696        -0.062425     -0.095512      0.111665
Zr     10.48920      2.52580     10.48920        -0.001582     -0.094258     -0.058630
Zr     10.48920     18.45260     10.48920         0.122301      0.339423     -0.006282
Zr     10.48920     10.48920      2.52580         0.017298     -0.051875     -0.409609
Zr     10.48920     10.48920     18.45260        -0.163526     -0.064245      0.383672
Zr      2.52580     10.48920     10.48920        -0.332702      0.245569     -0.118585
Zr     18.45260     10.48920     10.48920         0.275857     -0.012840     -0.285798
Pd      8.97451     10.12802     13.32204        -0.052621     -0.027096      0.004315
Pd     10.69060      9.69827     10.81962        -0.015760     -0.036739     -0.056838
Pd     13.72660      8.43457     12.57829        -0.011954      0.048353     -0.016416
Pd     11.00021     10.91018     14.97873        -0.025730     -0.019573      0.019335
Pd     12.91708     11.05714     12.99360         0.007230      0.025643      0.046858
Pd     15.08919     11.08802     11.31418        -0.020695     -0.040190      0.005471
Pd      6.60969      7.71083     12.32345         0.001368      0.033198      0.016498
Pd      9.31676      7.30700      9.85902        -0.004568     -0.009258     -0.017002
Pd      9.23944      7.48082     12.62185         0.009172      0.003712     -0.027140
Pd     11.64863      7.17968     11.40780        -0.004223      0.020756     -0.021418
Pd     11.69996      7.99210      8.87762         0.003689     -0.021734     -0.042594
Pd      7.36404     11.78216     11.78536        -0.018759      0.000575     -0.006759
Pd      9.19236     14.72855      9.44078        -0.004086     -0.040125      0.002039
Pd      8.38896     12.55559     14.26768        -0.024422     -0.017186     -0.007573
Pd     14.09519     14.25421      8.31329         0.004937     -0.006248      0.000983
Pd     11.50771     13.64046      8.73746         0.016366     -0.010404      0.017605
Pd     14.15564     11.69488      8.88921        -0.001000     -0.000228     -0.016545
Pd      8.71780     14.03555     12.08130        -0.009329     -0.014618      0.013731
Pd     12.26695     13.53152     14.14434        -0.011976      0.026809     -0.006832
Pd     11.34617     14.40616     11.44515         0.006716     -0.012768      0.000827
Pd     14.07175     13.60149     12.26285        -0.002757     -0.016756     -0.006043
Pd     12.41832     12.13886     10.73233        -0.009862     -0.063349      0.031564
Pd     12.75354     12.54091      6.67326        -0.004022      0.007067     -0.011051
Pd     13.93630      9.00060      7.97057         0.002221     -0.012877     -0.036937
Pd      6.94393      8.50137      8.76155        -0.003719     -0.025077     -0.026507
Pd      5.62362     10.10131     10.70853        -0.013084     -0.007426     -0.051016
Pd      9.39585      9.47509      8.09149         0.004500     -0.028049     -0.077335
Pd      8.56721      7.03416      7.23126        -0.016265     -0.024546     -0.013389
Pd      9.75746     12.12007     10.38357        -0.011515     -0.017768      0.023944
Pd     11.63411     10.82047      8.46524        -0.015502     -0.009323     -0.049411
Pd     11.58882      9.09200      6.44472         0.015667     -0.001355     -0.020484
Pd     10.10020     11.34003      6.26013         0.011804     -0.013059     -0.045256
Ir     11.28924      9.03183     13.19876        -0.015201      0.034916     -0.047234
Ir     13.22097      9.60944     10.36014        -0.000444     -0.038485     -0.022551
Ir     10.54910     12.22647     12.75650        -0.014537     -0.017713      0.010921
Ir      7.60331     11.00689      9.25774         0.024795      0.034054     -0.044992
Ir      8.90624     12.57151      8.07246         0.055311     -0.057418      0.007104
Ir      8.19552      9.31695     11.00755         0.021485     -0.024808      0.019931
