20
# total energy = -160.58942404 eVC      8.34205      3.99395      7.50000         0.023558      0.051883     -0.000000
C      1.42413     -0.00001      7.50000        -0.058333     -0.000243      0.000000
C      8.34218     -3.99445      7.50000         0.020382     -0.047715      0.000000
C      0.71206      1.23343      7.50000        -0.023558     -0.051883     -0.000000
C      7.62998      5.22740      7.50000         0.058333      0.000243      0.000000
C      0.71194      9.22184      7.50000        -0.020382      0.047715      0.000000
C      7.63730     -2.77377      7.50000         0.030774     -0.052238      0.000000
C      7.63730      2.77334      7.50000         0.026343      0.045021     -0.000000
C      2.83360     -0.00012      7.50000        -0.064046      0.000177     -0.000000
C      1.41681      8.00115      7.50000        -0.030774      0.052238      0.000000
C      1.41681      2.45404      7.50000        -0.026343     -0.045021     -0.000000
C      6.22051      5.22750      7.50000         0.064046     -0.000177     -0.000000
N      7.04956     -1.75565      7.50000        -0.007839      0.013219      0.000000
N      7.04959      1.75515      7.50000        -0.005921     -0.009450      0.000000
N      4.00914     -0.00014      7.50000         0.021835      0.000089      0.000000
N      2.00455      6.98303      7.50000         0.007839     -0.013219      0.000000
N      2.00452      3.47223      7.50000         0.005921      0.009450      0.000000
N      5.04498      5.22753      7.50000        -0.021835     -0.000089      0.000000
Pd      6.03611     -0.00023      7.50000         0.000084      0.000180      0.000000
Pd      3.01801      5.22761      7.50000        -0.000084     -0.000180      0.000000
