152
# total energy = -1091.81743188 eVH     10.35389      5.87395      7.64558         0.870590     -1.414780      1.568371
H     10.62451     15.10445      7.64558        -0.723316      1.313796      1.937758
H     10.62451      5.87395     13.33282         0.794982     -0.540753     -2.002055
H     10.35389     15.10445     13.33282        -0.839724      0.643529     -1.867471
H      7.64558     10.35389      5.87395         0.381089     -0.133289      0.028734
H      7.64558     10.62451     15.10445         0.633292     -0.235974      0.160106
H     13.33282     10.62451      5.87395        -0.433875      0.027757      0.106751
H     13.33282     10.35389     15.10445        -0.642624      0.255658      0.042031
H      5.87395      7.64558     10.35389        -0.020043      1.272662      0.026589
H     15.10445      7.64558     10.62451        -0.013959      0.670906     -0.016648
H      5.87395     13.33282     10.62451        -0.059764     -0.582415     -0.008309
H     15.10445     13.33282     10.35389         0.142351     -1.253859      0.044794
H      5.87395     10.35389      7.64558        -0.104319      0.021686      0.232008
H     15.10445     10.62451      7.64558         0.190480      0.077116      0.272768
H      5.87395     10.62451     13.33282        -0.116852      0.284946     -0.585094
H     15.10445     10.35389     13.33282        -0.000920     -0.256549     -0.245145
H     10.35389      7.64558      5.87395        -0.229266      0.692989     -0.097532
H     10.62451      7.64558     15.10445         0.238263      0.678118      0.339174
H     10.62451     13.33282      5.87395        -0.184492     -1.052720     -0.169651
H     10.35389     13.33282     15.10445        -0.151845     -0.794798      0.286512
H      7.64558      5.87395     10.35389         0.606892     -0.084650     -0.104900
H      7.64558     15.10445     10.62451         0.827546     -0.022191     -0.034911
H     13.33282      5.87395     10.62451        -0.735273     -0.012460      0.170766
H     13.33282     15.10445     10.35389        -0.550163      0.175127     -0.046476
H     12.45634     12.45634     19.01126         0.258604      0.252605     -0.242119
H     19.01126     19.01126     19.01126        -0.258154     -0.250251     -0.242443
H     19.01126     12.45634     12.45634        -0.249166      0.268273      0.236868
H     12.45634     19.01126     12.45634         0.252506     -0.271182      0.231175
C     10.35284      5.61067      6.59456        -0.464691      0.053900     -2.051861
C     10.62556     15.36773      6.59456         0.382933     -0.132998     -2.124697
C     10.62556      5.61067     14.38384        -0.270665     -0.375253      2.038954
C     10.35284     15.36773     14.38384         0.325647      0.140941      1.886369
C      6.59456     10.35284      5.61067        -0.570576     -0.015915     -0.256756
C      6.59456     10.62556     15.36773        -0.983838     -0.044488      0.468490
C     14.38384     10.62556      5.61067         0.630729      0.003367     -0.211103
C     14.38384     10.35284     15.36773         0.834839     -0.064160      0.288797
C      5.61067      6.59456     10.35284        -0.189709     -0.582442      0.130352
C     15.36773      6.59456     10.62556         0.285804     -1.084985      0.002666
C      5.61067     14.38384     10.62556        -0.386870      1.063845      0.031037
C     15.36773     14.38384     10.35284         0.363244      0.907952      0.052885
C      5.61067     10.35284      6.59456        -0.659409      0.095896     -1.830779
C     15.36773     10.62556      6.59456         0.627451      0.027561     -1.856910
C      5.61067     10.62556     14.38384        -0.732217      0.007400      1.964383
C     15.36773     10.35284     14.38384         0.644036     -0.083435      1.485065
C     10.35284      6.59456      5.61067         0.034109     -1.530407     -0.804039
C     10.62556      6.59456     15.36773         0.023878     -1.875894      1.095717
C     10.62556     14.38384      5.61067         0.090535      1.605820     -0.791342
C     10.35284     14.38384     15.36773        -0.096073      1.900567      0.998247
C      6.59456      5.61067     10.35284        -0.155596     -0.804822     -0.132130
C      6.59456     15.36773     10.62556        -1.614326      0.514298      0.009712
C     14.38384      5.61067     10.62556         1.769609     -0.658745     -0.086725
C     14.38384     15.36773     10.35284         0.302015      1.016854     -0.034451
C     10.40319      3.19606      7.29314        -0.012541      0.614731     -0.322223
C     10.35913      4.25547      6.23373         0.079208     -0.844599      0.709055
C      0.08601      7.29314      7.29314        -0.009491     -0.612661     -0.334162
C      0.13007      6.23373      6.23373        -0.128140      0.870816      0.806617
C      0.08601      3.19606      3.19606        -0.057244      0.484688      0.343999
C      0.13007      4.25547      4.25547        -0.003540     -0.968694     -0.482681
C     10.40319      7.29314      3.19606         0.047077     -0.482315      0.317045
C     10.35913      6.23373      4.25547         0.054732      0.754863     -0.570934
C      7.29314     10.40319      3.19606        -0.343847      0.021060      0.711903
C      6.23373     10.35913      4.25547         0.297949     -0.034496     -0.379777
C      7.29314      0.08601      7.29314        -0.383995      0.051831     -0.417165
C      6.23373      0.13007      6.23373         0.180918      0.080341      0.535297
C      3.19606      0.08601      3.19606         0.306261      0.019077      0.832006
C      4.25547      0.13007      4.25547        -0.435895      0.147572     -0.348292
C      3.19606     10.40319      7.29314         0.434819     -0.001009     -0.647331
C      4.25547     10.35913      6.23373        -0.327995      0.002606      0.625657
C      3.19606      7.29314     10.40319         0.309685     -0.549546     -0.000585
C      4.25547      6.23373     10.35913        -0.832621      0.331966      0.004270
C      7.29314      7.29314      0.08601        -0.356600     -0.196041     -0.000658
C      6.23373      6.23373      0.13007         0.074421      0.368178     -0.037249
C      3.19606      3.19606      0.08601         0.361971      0.173914     -0.020794
C      4.25547      4.25547      0.13007        -0.103420     -0.299161     -0.024552
C      7.29314      3.19606     10.40319        -0.389905      0.622081     -0.013282
C      6.23373      4.25547     10.35913         0.606942     -0.745063      0.032103
O     10.43466      3.58206      8.50569        -0.011908      0.159541      0.319000
O     10.54374     17.39634      8.50569         0.012659     -0.175573      0.325471
O     10.54374      3.58206     12.47271         0.070320      0.196975     -0.355687
O     10.43466     17.39634     12.47271        -0.087371     -0.215404     -0.333638
O      8.50569     10.43466      3.58206         0.419777     -0.021980      0.087142
O      8.50569     10.54374     17.39634         0.490958      0.052054     -0.150824
O     12.47271     10.54374      3.58206        -0.354987      0.022226      0.051542
O     12.47271     10.43466     17.39634        -0.490979     -0.050375     -0.120343
O      3.58206      8.50569     10.43466         0.112441      0.526442     -0.030900
O     17.39634      8.50569     10.54374        -0.128200      0.441278      0.037210
O      3.58206     12.47271     10.54374         0.099519     -0.392572      0.051122
O     17.39634     12.47271     10.43466        -0.215124     -0.644524      0.008883
O      3.58206     10.43466      8.50569         0.238983     -0.048031      0.584721
O     17.39634     10.54374      8.50569        -0.160071      0.000918      0.469961
O      3.58206     10.54374     12.47271         0.401815     -0.078631     -0.652673
O     17.39634     10.43466     12.47271        -0.231370      0.004177     -0.642933
O     10.43466      8.50569      3.58206         0.033793      0.539826      0.280763
O     10.54374      8.50569     17.39634         0.082854      0.625808     -0.308903
O     10.54374     12.47271      3.58206         0.018289     -0.584525      0.271976
O     10.43466     12.47271     17.39634        -0.067543     -0.633250     -0.316437
O      8.50569      3.58206     10.43466         0.548625      0.150004     -0.036535
O      8.50569     17.39634     10.54374         0.484429     -0.178410      0.035875
O     12.47271      3.58206     10.54374        -0.491199      0.183687      0.009761
O     12.47271     17.39634     10.43466        -0.528936     -0.166777     -0.024373
O     11.90042     11.90042     19.56718        -0.294566     -0.303474      0.254526
O     19.56718     19.56718     19.56718         0.305574      0.293618      0.257968
O     19.56718     11.90042     11.90042         0.300897     -0.325171     -0.263663
O     11.90042     19.56718     11.90042        -0.284562      0.319442     -0.249219
O      9.45224      1.03696      9.45224        -0.044562      0.033018     -0.096166
O      1.03696      9.45224      9.45224         0.057648     -0.037018     -0.089514
O      1.03696      1.03696      1.03696         0.081412      0.032566      0.099177
O      9.45224      9.45224      1.03696        -0.053672     -0.052464      0.097069
Zr     10.48920      2.52580     10.48920        -0.114692     -0.054391      0.022578
Zr     10.48920     18.45260     10.48920         0.082487      0.080469     -0.020384
Zr     10.48920     10.48920      2.52580        -0.049135      0.047437     -0.216176
Zr     10.48920     10.48920     18.45260        -0.003678      0.002279      0.240419
Zr      2.52580     10.48920     10.48920        -0.150954     -0.002195     -0.118353
Zr     18.45260     10.48920     10.48920         0.183629      0.045689     -0.082256
Pd     13.38610      8.39845      7.98365        -0.048854      0.052035      0.023592
Pd      8.82443     14.16576     12.05267         0.113704      0.102917     -0.059728
Pd     12.17713     11.19142     10.65556        -0.100185      0.122798     -0.144756
Pd     14.68324     10.92129     11.73172        -0.037697     -0.109195     -0.017739
Pd     11.28374      9.19570      6.44375        -0.113338     -0.098550      0.049646
Pd      7.13009      7.57735      8.65108        -0.008197      0.193702      0.010874
Ir      9.89384     11.70651     11.97663         0.040408      0.021292     -0.290900
Ir     13.23478      8.74505     10.70718        -0.100505     -0.177706     -0.020785
Ir     12.10013     11.14347      7.97928         0.052034      0.058464     -0.079379
Ir      8.92544     14.02464      9.29566         0.131939      0.028070     -0.011797
Ir     10.88622      9.24582     11.96536         0.104507      0.135564     -0.081353
Ir      8.69971      9.65592      8.01087         0.019204     -0.079635     -0.087333
Ir     13.44123     12.99267      9.12294         0.143302      0.001676      0.049060
Ir     11.26750     13.52149      7.94501         0.020562     -0.133772     -0.030398
Ir     14.27362     10.55401      9.25118         0.089371     -0.068569     -0.012538
Ir      9.70097      7.20200     10.66732        -0.097621     -0.100131     -0.012856
Ir      7.70273     12.12946      7.99119         0.027674     -0.065082     -0.134582
Ir      9.69451      7.40675      8.08368        -0.145525      0.107541     -0.107368
Ir     11.39170     13.61294     13.16170        -0.017540      0.048058      0.129376
Ir     12.00063      6.96429     12.12444        -0.142195      0.026328     -0.172506
Ir      9.86558     11.59659      9.32391         0.023950      0.050189     -0.001310
Ir     13.27831      8.76189     13.33995         0.193277     -0.107890      0.020753
Ir     11.00895      9.19433      9.30642        -0.010794     -0.060740     -0.013884
Ir     11.11544     13.66952     10.52904         0.078893      0.039226      0.017556
Ir     13.37937     13.22104     11.86888         0.100309     -0.050452     -0.001669
Ir     12.21013     11.22855     13.27620        -0.032383     -0.030760      0.079193
Ir      9.91174     11.43909      6.68412         0.003759      0.063698     -0.045986
Ir     11.91185      6.81932      9.52939        -0.119363     -0.163367      0.018186
Ir      7.40825      7.64755     11.96423         0.107277      0.197666      0.136628
Ir      7.67229     12.17069     10.61988         0.118291     -0.102304      0.056981
Ir     11.02545      9.35016     14.50510        -0.031221      0.074090     -0.004575
Ir      7.58802     12.02545     13.19775        -0.032244      0.277667     -0.035919
Ir      6.51445     10.14856      9.35990        -0.019851      0.186069     -0.190278
Ir      8.65746      9.68946     13.30477         0.021341     -0.216966     -0.050674
Ir      6.36476      9.99512     11.72733        -0.005952      0.211396      0.138050
Ir      9.40455      7.24756     13.29224        -0.119346      0.010465     -0.143962
Ir      9.87821     11.60183     14.51669        -0.036694     -0.046759      0.071470
Ir      8.64975      9.59742     10.65648         0.124664      0.185978     -0.057077
