152
# total energy = -1005.06201821 eVH     10.35389      5.87395      7.64558         0.156640      0.079199      0.596494
H     10.62451     15.10445      7.64558        -0.103928     -0.155805      0.464793
H     10.62451      5.87395     13.33282         0.468737      0.070909     -0.821161
H     10.35389     15.10445     13.33282         0.024055     -0.156171     -0.420833
H      7.64558     10.35389      5.87395         0.336318      0.030775      0.160543
H      7.64558     10.62451     15.10445         0.966549      0.531215      0.057467
H     13.33282     10.62451      5.87395        -0.522002      0.350881      0.023836
H     13.33282     10.35389     15.10445        -0.912523     -0.150145      0.065568
H      5.87395      7.64558     10.35389         0.295335      1.287051      0.043589
H     15.10445      7.64558     10.62451        -0.100255      0.510669      0.336402
H      5.87395     13.33282     10.62451         0.168873     -0.547645      0.046361
H     15.10445     13.33282     10.35389        -0.060059     -0.968658     -0.239026
H      5.87395     10.35389      7.64558         0.219609      0.045832      0.442907
H     15.10445     10.62451      7.64558        -0.135327      0.588076      0.788598
H      5.87395     10.62451     13.33282        -0.057740      0.528861     -1.256273
H     15.10445     10.35389     13.33282        -0.065243     -0.070824     -0.648151
H     10.35389      7.64558      5.87395         0.312637      1.221596     -0.003239
H     10.62451      7.64558     15.10445         0.595472      0.702617     -0.203666
H     10.62451     13.33282      5.87395        -0.373229     -0.792566      0.304136
H     10.35389     13.33282     15.10445        -0.139311     -0.460848     -0.308755
H      7.64558      5.87395     10.35389         0.714776      0.057228     -0.221256
H      7.64558     15.10445     10.62451         0.800663     -0.180426      0.028541
H     13.33282      5.87395     10.62451        -0.684355      0.158300      0.550931
H     13.33282     15.10445     10.35389        -0.424550     -0.105117     -0.130921
H     12.45634     12.45634     19.01126         0.252061      0.274332     -0.229107
H     19.01126     19.01126     19.01126        -0.282969     -0.258603     -0.225619
H     19.01126     12.45634     12.45634        -0.280667      0.261757      0.215956
H     12.45634     19.01126     12.45634         0.241330     -0.262470      0.266999
C     10.35284      5.61067      6.59456        -0.262967     -0.827180     -0.096624
C     10.62556     15.36773      6.59456         0.039288      0.261880     -0.264144
C     10.62556      5.61067     14.38384        -0.123607     -0.450393      0.435913
C     10.35284     15.36773     14.38384         0.020377      0.210282      0.369947
C      6.59456     10.35284      5.61067        -0.353452      0.013021     -0.188542
C      6.59456     10.62556     15.36773        -0.918389      0.151241      0.714825
C     14.38384     10.62556      5.61067         0.038950     -0.416202     -0.756358
C     14.38384     10.35284     15.36773         1.122880     -0.083385      0.146436
C      5.61067      6.59456     10.35284        -0.744826     -0.241303     -0.198946
C     15.36773      6.59456     10.62556         0.540948      0.054190     -0.374697
C      5.61067     14.38384     10.62556        -0.171013      0.519909      0.013801
C     15.36773     14.38384     10.35284         0.259575      0.918416      0.033714
C      5.61067     10.35284      6.59456        -0.309006      0.023205     -0.828057
C     15.36773     10.62556      6.59456         0.549809     -0.158795      0.204842
C      5.61067     10.62556     14.38384        -0.771338      0.006395      0.918519
C     15.36773     10.35284     14.38384         0.498020     -0.078123      1.051043
C     10.35284      6.59456      5.61067        -0.068125     -0.919815     -0.630231
C     10.62556      6.59456     15.36773         0.013765     -0.576036      0.482567
C     10.62556     14.38384      5.61067         0.176120      1.197046     -0.293688
C     10.35284     14.38384     15.36773        -0.009613      0.945140      0.439366
C      6.59456      5.61067     10.35284         0.383052     -1.064250      0.348979
C      6.59456     15.36773     10.62556        -0.950451      0.210469      0.088785
C     14.38384      5.61067     10.62556         0.223605     -0.583165     -0.359181
C     14.38384     15.36773     10.35284         0.177794      0.372539     -0.072595
C     10.40319      3.19606      7.29314         0.004271      1.013417     -0.419380
C     10.35913      4.25547      6.23373         0.076183     -0.578635      0.124856
C      0.08601      7.29314      7.29314        -0.036716     -1.016105     -0.168121
C      0.13007      6.23373      6.23373        -0.074921      0.219320      0.386863
C      0.08601      3.19606      3.19606         0.028713      1.421879      0.222401
C      0.13007      4.25547      4.25547        -0.021339     -0.493230     -0.306100
C     10.40319      7.29314      3.19606        -0.004463     -0.346921      0.263454
C     10.35913      6.23373      4.25547         0.032181      0.024738     -0.799955
C      7.29314     10.40319      3.19606        -0.265646      0.020838      0.539342
C      6.23373     10.35913      4.25547         0.128955      0.053396     -0.075624
C      7.29314      0.08601      7.29314        -1.081601     -0.088934     -0.263757
C      6.23373      0.13007      6.23373         0.877142     -0.211515      0.398582
C      3.19606      0.08601      3.19606         0.895245     -0.038352      0.539040
C      4.25547      0.13007      4.25547        -0.588889     -0.119528     -0.675569
C      3.19606     10.40319      7.29314         0.614801     -0.003374     -0.714696
C      4.25547     10.35913      6.23373        -0.263692      0.082311      0.239751
C      3.19606      7.29314     10.40319         0.339699     -1.152235      0.024575
C      4.25547      6.23373     10.35913        -1.104168      0.056392      0.135472
C      7.29314      7.29314      0.08601        -0.444530     -0.408881     -0.022510
C      6.23373      6.23373      0.13007         0.587157      0.225779      0.016029
C      3.19606      3.19606      0.08601         0.455811      0.334240     -0.042050
C      4.25547      4.25547      0.13007        -0.108903     -0.589073     -0.051648
C      7.29314      3.19606     10.40319        -0.406936      0.495517      0.058442
C      6.23373      4.25547     10.35913         0.259143     -0.781256      0.162964
O     10.43466      3.58206      8.50569        -0.026667      0.011795      0.396113
O     10.54374     17.39634      8.50569         0.073681     -0.028646      0.248689
O     10.54374      3.58206     12.47271         0.025045     -0.124631     -0.110345
O     10.43466     17.39634     12.47271        -0.028369     -0.166904     -0.518465
O      8.50569     10.43466      3.58206         0.275605     -0.021583      0.010879
O      8.50569     10.54374     17.39634         0.885790     -0.064007     -0.156294
O     12.47271     10.54374      3.58206        -0.759699      0.083306      0.061252
O     12.47271     10.43466     17.39634        -0.503818      0.033468     -0.070046
O      3.58206      8.50569     10.43466         0.200200      1.032842     -0.062324
O     17.39634      8.50569     10.54374        -0.150563      0.589840      0.059410
O      3.58206     12.47271     10.54374         0.097006     -0.459363      0.031367
O     17.39634     12.47271     10.43466        -0.148019     -0.600027     -0.031718
O      3.58206     10.43466      8.50569         0.085057     -0.090845      0.611328
O     17.39634     10.54374      8.50569         0.023545      0.105693      0.346701
O      3.58206     10.54374     12.47271         0.035388      0.040987     -0.505951
O     17.39634     10.43466     12.47271        -0.238675     -0.037679     -0.663270
O     10.43466      8.50569      3.58206        -0.040528      0.452542      0.138650
O     10.54374      8.50569     17.39634        -0.086304      0.758131     -0.216019
O     10.54374     12.47271      3.58206         0.019381     -0.964475      0.102615
O     10.43466     12.47271     17.39634         0.074783     -0.887184     -0.234936
O      8.50569      3.58206     10.43466         0.595102      0.143449     -0.055891
O      8.50569     17.39634     10.54374         0.552143     -0.180717     -0.002654
O     12.47271      3.58206     10.54374        -0.614146      0.187652      0.006490
O     12.47271     17.39634     10.43466        -0.331525      0.027130     -0.046871
O     11.90042     11.90042     19.56718        -0.276946     -0.314499      0.213275
O     19.56718     19.56718     19.56718         0.326487      0.299176      0.210854
O     19.56718     11.90042     11.90042         0.318854     -0.260687     -0.237225
O     11.90042     19.56718     11.90042        -0.253268      0.309213     -0.332662
O      9.45224      1.03696      9.45224        -0.002802      0.059668     -0.157888
O      1.03696      9.45224      9.45224         0.076047     -0.059309     -0.191117
O      1.03696      1.03696      1.03696         0.114496      0.165018      0.009362
O      9.45224      9.45224      1.03696        -0.104236     -0.111569     -0.005949
Zr     10.48920      2.52580     10.48920        -0.084372     -0.194863     -0.004097
Zr     10.48920     18.45260     10.48920        -0.074514      0.163252      0.244880
Zr     10.48920     10.48920      2.52580        -0.081289     -0.462619     -0.166263
Zr     10.48920     10.48920     18.45260        -0.060006      0.068538      0.513496
Zr      2.52580     10.48920     10.48920        -0.320556      0.233356      0.324937
Zr     18.45260     10.48920     10.48920         0.162412     -0.001892     -0.044106
Pd     13.63248      8.92344      9.18622         0.004274     -0.077054     -0.019711
Pd      5.80947      9.76004      9.91184        -0.102672     -0.073950      0.045309
Pd      6.95500     11.26698     11.79324        -0.049935      0.004650     -0.086353
Pd     12.19880     13.05084      7.33670        -0.043166      0.054700      0.025437
Pd     12.19051      7.72674      7.04946         0.008053      0.081624      0.128463
Pd      8.30855      7.08571      6.54131        -0.033352      0.003712      0.034509
Pd     10.87080     11.31051      5.56548        -0.025857     -0.013628      0.038658
Pd     14.69053      8.55194      6.76850        -0.003291     -0.037859     -0.041507
Pd      9.77536     11.70071      8.09738         0.007777      0.065255      0.030028
Pd      6.65652      6.76940     12.32548         0.111049      0.134899      0.027717
Pd      6.47505      7.48916      8.34762        -0.085703      0.054885     -0.011060
Pd      7.04486      8.99322     13.74650         0.022155     -0.061435      0.024903
Pd     11.71835      6.57643      9.41091         0.077654     -0.057204     -0.000370
Pd      9.89491      9.23571      6.86031        -0.071472      0.118533      0.039595
Pd      9.04060     13.91734      9.47600         0.035135     -0.056040      0.014333
Pd     10.22248      7.14736     11.45473        -0.047948     -0.026281     -0.005083
Pd     10.67667      9.00890      9.46437        -0.248810      0.028201     -0.074211
Pd      9.38674     11.20347     10.72315         0.066036      0.101275     -0.093194
Pd      9.00462      7.00660      9.08885         0.026296     -0.092965      0.105027
Pd      8.89163      7.16702     13.70095         0.016896     -0.094156      0.005805
Pd      8.13233      8.79350     11.29625        -0.034650      0.082146     -0.029506
Pd     12.13482     10.40929      7.67213        -0.025481      0.131348      0.054453
Pd      7.24611     11.99584      9.21670        -0.054057      0.023214      0.014603
Pd      8.11967      9.55800      8.69524        -0.023025     -0.006125      0.097554
Pd     14.26381      6.47114      8.44887        -0.060690      0.063445      0.043600
Pd     12.60712      8.36606     11.57264         0.037433     -0.037488      0.051571
Pd      8.85214     11.39264     13.58261        -0.033377      0.076771     -0.154866
Pd     13.86945     11.90153      9.07306        -0.051371     -0.018488      0.023944
Pd     12.87823     10.76986     13.18159         0.004504     -0.079711     -0.121981
Pd     14.66277     10.41078     11.21180         0.048243     -0.115227     -0.091542
Pd     12.02029     10.76707     10.68058         0.114153      0.054378      0.011220
Pd     11.46987     13.15299      9.87148        -0.011199      0.013691      0.070170
Pd     13.52998     12.95509     11.66900         0.016531     -0.060389     -0.000531
Pd     11.02036     12.61276     12.49568        -0.015240      0.014540     -0.018580
Pd     11.10634     11.42415     14.97644         0.050064      0.009466     -0.009954
Pd     10.49029      9.53685     12.72695         0.031678     -0.077630     -0.100412
Pd      9.43646      9.37962     15.22233        -0.037485     -0.032195     -0.066207
Pd      8.59535     13.51396     12.06410        -0.043666     -0.027360     -0.121186
