152
# total energy = -1024.25131742 eVH     10.35389      5.87395      7.64558         0.512969      0.046133      0.752332
H     10.62451     15.10445      7.64558         0.015577     -0.184052      0.578851
H     10.62451      5.87395     13.33282         0.124110      0.158508     -0.613688
H     10.35389     15.10445     13.33282        -0.397152     -0.064647     -0.736335
H      7.64558     10.35389      5.87395         0.336020     -0.000686      0.181876
H      7.64558     10.62451     15.10445         0.819458     -0.303891     -0.037338
H     13.33282     10.62451      5.87395        -0.757361      0.004787      0.162164
H     13.33282     10.35389     15.10445        -0.916730     -0.433500      0.246135
H      5.87395      7.64558     10.35389         0.213731      0.596875     -0.000040
H     15.10445      7.64558     10.62451        -0.143575      0.400642     -0.048958
H      5.87395     13.33282     10.62451         0.165532     -0.507685     -0.100030
H     15.10445     13.33282     10.35389        -0.116944     -1.129576     -0.004730
H      5.87395     10.35389      7.64558         0.137439      0.116808      0.480953
H     15.10445     10.62451      7.64558         0.052689      0.119147      1.074510
H      5.87395     10.62451     13.33282         0.118177     -0.022308     -0.419021
H     15.10445     10.35389     13.33282        -0.087884     -0.158205     -0.612588
H     10.35389      7.64558      5.87395         0.092785      0.932147      0.224430
H     10.62451      7.64558     15.10445         0.015598      0.284394     -0.179357
H     10.62451     13.33282      5.87395        -0.078584     -0.496616      0.317101
H     10.35389     13.33282     15.10445        -0.425237     -0.659802     -0.040064
H      7.64558      5.87395     10.35389         0.471177      0.120907      0.058459
H      7.64558     15.10445     10.62451         0.869739     -0.263601     -0.016495
H     13.33282      5.87395     10.62451        -0.563554      0.145699     -0.084456
H     13.33282     15.10445     10.35389        -0.609991     -0.069077      0.211128
H     12.45634     12.45634     19.01126         0.239742      0.275631     -0.234471
H     19.01126     19.01126     19.01126        -0.253798     -0.245181     -0.243529
H     19.01126     12.45634     12.45634        -0.260532      0.269708      0.221240
H     12.45634     19.01126     12.45634         0.227498     -0.262661      0.246006
C     10.35284      5.61067      6.59456        -0.177149     -0.615321      0.070149
C     10.62556     15.36773      6.59456        -0.017779      0.407065     -0.762340
C     10.62556      5.61067     14.38384        -0.025026     -0.085505      0.740908
C     10.35284     15.36773     14.38384         0.163734      0.708535      0.160571
C      6.59456     10.35284      5.61067        -0.386050     -0.027281     -0.266282
C      6.59456     10.62556     15.36773        -1.003594      0.316826      0.412785
C     14.38384     10.62556      5.61067         0.441142      0.291662     -0.607942
C     14.38384     10.35284     15.36773         1.020722     -0.008273      0.383220
C      5.61067      6.59456     10.35284        -0.376239     -0.510848      0.216506
C     15.36773      6.59456     10.62556         0.192403     -0.524415      0.032371
C      5.61067     14.38384     10.62556        -0.159723      0.547613      0.007034
C     15.36773     14.38384     10.35284         0.330988      0.008529     -0.135068
C      5.61067     10.35284      6.59456        -0.305826     -0.058166     -0.891627
C     15.36773     10.62556      6.59456         0.721721     -0.293426     -1.111820
C      5.61067     10.62556     14.38384        -0.468622      0.001428      0.304857
C     15.36773     10.35284     14.38384         0.680771     -0.122217      1.115867
C     10.35284      6.59456      5.61067        -0.241601     -0.537637     -0.826861
C     10.62556      6.59456     15.36773         0.050419     -0.297303      0.096409
C     10.62556     14.38384      5.61067         0.133366      1.230598     -0.435824
C     10.35284     14.38384     15.36773         0.209291      0.117992      0.671105
C      6.59456      5.61067     10.35284        -0.370978     -0.722540      0.063419
C      6.59456     15.36773     10.62556        -1.221974      0.280284      0.066606
C     14.38384      5.61067     10.62556         0.883020     -0.273226      0.026397
C     14.38384     15.36773     10.35284        -0.496214      0.731962     -0.377069
C     10.40319      3.19606      7.29314        -0.018972      0.845149     -0.395594
C     10.35913      4.25547      6.23373         0.024860     -0.478542      0.584122
C      0.08601      7.29314      7.29314        -0.017124     -0.493865     -0.371004
C      0.13007      6.23373      6.23373        -0.019615      0.019910      0.097383
C      0.08601      3.19606      3.19606        -0.008764      1.173120      0.184825
C      0.13007      4.25547      4.25547        -0.052731     -0.217455     -0.239761
C     10.40319      7.29314      3.19606        -0.003822     -0.981830      0.430706
C     10.35913      6.23373      4.25547         0.022569      0.465284     -0.639885
C      7.29314     10.40319      3.19606        -0.415054      0.045046      0.794814
C      6.23373     10.35913      4.25547         0.241604      0.090793     -0.115317
C      7.29314      0.08601      7.29314        -0.562396     -0.027724     -0.256885
C      6.23373      0.13007      6.23373         0.395871     -0.067506      0.407527
C      3.19606      0.08601      3.19606         0.813135     -0.018773      0.348480
C      4.25547      0.13007      4.25547        -0.105568     -0.063796     -0.453388
C      3.19606     10.40319      7.29314         0.501723      0.000363     -0.749648
C      4.25547     10.35913      6.23373        -0.255028      0.113241      0.250357
C      3.19606      7.29314     10.40319         0.497438     -1.390464     -0.043297
C      4.25547      6.23373     10.35913        -0.392946      0.799196      0.034745
C      7.29314      7.29314      0.08601        -0.445748     -0.231659     -0.012420
C      6.23373      6.23373      0.13007         0.169623      0.140157     -0.012492
C      3.19606      3.19606      0.08601         0.249274      0.251200     -0.021028
C      4.25547      4.25547      0.13007        -0.095931     -0.048727      0.017617
C      7.29314      3.19606     10.40319        -0.356181      0.686866      0.013376
C      6.23373      4.25547     10.35913         1.096614      0.060680      0.003882
O     10.43466      3.58206      8.50569        -0.029105      0.052955      0.450673
O     10.54374     17.39634      8.50569        -0.008094     -0.088538      0.444241
O     10.54374      3.58206     12.47271         0.049517     -0.078084     -0.152854
O     10.43466     17.39634     12.47271        -0.048522     -0.058829     -0.507331
O      8.50569     10.43466      3.58206         0.351458     -0.025375     -0.033572
O      8.50569     10.54374     17.39634         0.661390      0.028909     -0.164891
O     12.47271     10.54374      3.58206        -0.701346     -0.031678      0.152384
O     12.47271     10.43466     17.39634        -0.468300     -0.027708     -0.049251
O      3.58206      8.50569     10.43466         0.136826      1.110828     -0.000054
O     17.39634      8.50569     10.54374        -0.075745      0.405723      0.067500
O      3.58206     12.47271     10.54374         0.070843     -0.413257      0.039901
O     17.39634     12.47271     10.43466        -0.156790     -0.704571      0.006051
O      3.58206     10.43466      8.50569         0.018521     -0.073960      0.631776
O     17.39634     10.54374      8.50569        -0.073171      0.043257      0.337026
O      3.58206     10.54374     12.47271         0.005808      0.024113     -0.316288
O     17.39634     10.43466     12.47271        -0.226250      0.016476     -0.726687
O     10.43466      8.50569      3.58206         0.101605      0.830601      0.198549
O     10.54374      8.50569     17.39634         0.039484      0.671852     -0.156765
O     10.54374     12.47271      3.58206        -0.033972     -1.008379      0.228350
O     10.43466     12.47271     17.39634        -0.026265     -0.901176     -0.195747
O      8.50569      3.58206     10.43466         0.517045      0.098606     -0.020118
O      8.50569     17.39634     10.54374         0.556727     -0.217327     -0.022801
O     12.47271      3.58206     10.54374        -0.470544      0.156246      0.056516
O     12.47271     17.39634     10.43466        -0.376104      0.055850     -0.009587
O     11.90042     11.90042     19.56718        -0.276603     -0.327624      0.260339
O     19.56718     19.56718     19.56718         0.282531      0.281148      0.287550
O     19.56718     11.90042     11.90042         0.287441     -0.306782     -0.200046
O     11.90042     19.56718     11.90042        -0.269119      0.279404     -0.254862
O      9.45224      1.03696      9.45224        -0.088242      0.051462     -0.053695
O      1.03696      9.45224      9.45224         0.035660     -0.176645     -0.110284
O      1.03696      1.03696      1.03696        -0.000288      0.105225      0.214791
O      9.45224      9.45224      1.03696        -0.058598     -0.082939      0.133242
Zr     10.48920      2.52580     10.48920        -0.017048     -0.108111     -0.169889
Zr     10.48920     18.45260     10.48920         0.030034      0.246439     -0.007635
Zr     10.48920     10.48920      2.52580        -0.039438     -0.181992     -0.551787
Zr     10.48920     10.48920     18.45260        -0.049043      0.048152      0.473313
Zr      2.52580     10.48920     10.48920        -0.360747      0.335780      0.105358
Zr     18.45260     10.48920     10.48920         0.209275      0.040520     -0.251601
Pd      8.60260      9.91204     13.24356         0.008102      0.003700     -0.024149
Pd     10.53067      9.48639     10.32564         0.028087      0.099802     -0.036991
Pd     13.43723      8.73064     12.50787        -0.057323      0.004386      0.017464
Pd     10.48338     10.63314     15.10138         0.016964     -0.014363      0.019167
Pd     12.99621     11.34356     13.49604        -0.011881      0.031362     -0.091101
Pd     14.94665     10.75065     11.29134         0.053154     -0.007473      0.017331
Pd      6.78746      7.91804     12.58469         0.052099     -0.004967     -0.071201
Pd      9.24909      7.21473      9.59389        -0.029789     -0.016720      0.023747
Pd      9.45774      7.52279     12.34766         0.032797     -0.009447     -0.060305
Pd     11.75366      7.20508     11.04089        -0.054440      0.009055     -0.010249
Pd     11.62761      7.86509      8.41941        -0.020622     -0.039828     -0.078949
Pd      7.18554     11.71157     11.62817        -0.002098      0.043662      0.027221
Pd      9.25444     14.40784      9.40451        -0.025563     -0.038314     -0.011607
Pd      8.23756     12.41052     14.20877        -0.076379     -0.020513      0.003056
Pd     14.17047     14.20947      8.32163        -0.053288     -0.013928      0.046272
Pd     11.66275     13.38544      8.85699         0.005112     -0.018384      0.033362
Pd     14.06776     11.64108      8.93514         0.007589     -0.035098     -0.006485
Pd      8.78302     13.90402     12.10585        -0.021172      0.027896      0.044367
Pd     12.21224     13.89198     14.00370        -0.025788     -0.000550      0.003916
Pd     11.43651     14.10495     11.40522        -0.055327     -0.039524     -0.025454
Pd     14.08227     13.42025     12.15300        -0.033656      0.001378     -0.029270
Pd     12.34975     11.62442     10.91735        -0.051600      0.003116      0.023276
Pd     12.80417     12.61850      6.62663         0.083946      0.019608     -0.051691
Pd     13.90179      8.92016      7.62607         0.021140     -0.025364     -0.022461
Pd      6.96223      8.41750      8.52383         0.020061      0.032746     -0.032425
Pd      5.55573      9.99906     10.23844        -0.010268      0.028509     -0.004920
Pd      9.35643      9.46872      7.61430        -0.043218     -0.038044     -0.009487
Pd      8.50697      6.96771      6.98523        -0.029353      0.034341      0.012965
Pd      9.70036     11.93457     10.56421         0.001920     -0.016330     -0.015330
Pd     11.68311     10.68798      8.16392         0.030296     -0.016571      0.014856
Pd     11.67171      9.04203      5.99584         0.019173     -0.062808     -0.055613
Pd     10.34909     11.36067      5.83401         0.062343      0.000394     -0.020504
Ir     11.08689      9.59192     12.78189        -0.078587      0.007202     -0.007428
Ir     13.16911      9.32511     10.02318         0.036779     -0.002433      0.003029
Ir     10.54399     12.05758     12.92679        -0.001730      0.092638      0.024711
Ir      7.70178     10.97024      9.14612         0.027090      0.151380     -0.125703
Ir      9.42666     12.17457      8.04179        -0.012580     -0.011119     -0.003995
Ir      8.05864      9.23145     10.82298         0.046645     -0.136862      0.154189
