152
# total energy = -1090.70070970 eVH     10.35389      5.87395      7.64558         1.106175     -2.297430      1.403646
H     10.62451     15.10445      7.64558        -0.378237      0.904531      1.698166
H     10.62451      5.87395     13.33282         1.151127     -1.229570     -2.384648
H     10.35389     15.10445     13.33282        -0.706379      0.798267     -1.841443
H      7.64558     10.35389      5.87395         0.383359     -0.203034     -0.001915
H      7.64558     10.62451     15.10445         0.639033     -0.314399      0.186241
H     13.33282     10.62451      5.87395        -0.455445      0.022605      0.101881
H     13.33282     10.35389     15.10445        -0.581103      0.261898      0.036953
H      5.87395      7.64558     10.35389        -0.357938      1.183467      0.331190
H     15.10445      7.64558     10.62451         0.079124      0.833760     -0.021119
H      5.87395     13.33282     10.62451         0.021550     -0.481783      0.001766
H     15.10445     13.33282     10.35389         0.110152     -0.930414      0.093218
H      5.87395     10.35389      7.64558        -0.021777     -0.011486      0.611837
H     15.10445     10.62451      7.64558         0.091724      0.044560      0.342609
H      5.87395     10.62451     13.33282        -0.186399      0.346531     -0.799179
H     15.10445     10.35389     13.33282         0.299916     -0.281434      0.017057
H     10.35389      7.64558      5.87395        -0.368403      0.470381     -0.334311
H     10.62451      7.64558     15.10445         0.306693      0.917054      0.474945
H     10.62451     13.33282      5.87395        -0.171335     -0.999322     -0.203044
H     10.35389     13.33282     15.10445        -0.226942     -1.031567      0.304303
H      7.64558      5.87395     10.35389         0.979376     -0.358818      0.240463
H      7.64558     15.10445     10.62451         0.845636     -0.001005     -0.109346
H     13.33282      5.87395     10.62451        -0.864300     -0.109194      0.168268
H     13.33282     15.10445     10.35389        -0.525208      0.122812      0.039264
H     12.45634     12.45634     19.01126         0.262348      0.250716     -0.241591
H     19.01126     19.01126     19.01126        -0.259082     -0.255211     -0.238776
H     19.01126     12.45634     12.45634        -0.253327      0.264270      0.237332
H     12.45634     19.01126     12.45634         0.253796     -0.262564      0.235524
C     10.35284      5.61067      6.59456        -0.548260     -0.041433     -2.432695
C     10.62556     15.36773      6.59456         0.213124     -0.130201     -1.925543
C     10.62556      5.61067     14.38384        -0.083545     -0.910113      2.591208
C     10.35284     15.36773     14.38384         0.200079      0.130277      1.852906
C      6.59456     10.35284      5.61067        -0.541815     -0.048656     -0.370754
C      6.59456     10.62556     15.36773        -1.035040     -0.007462      0.539782
C     14.38384     10.62556      5.61067         0.601803      0.009459     -0.186551
C     14.38384     10.35284     15.36773         0.817765     -0.114759      0.300522
C      5.61067      6.59456     10.35284        -0.629288     -0.837214      0.321312
C     15.36773      6.59456     10.62556         0.345872     -1.295774     -0.006937
C      5.61067     14.38384     10.62556        -0.448928      0.888980      0.028189
C     15.36773     14.38384     10.35284         0.420531      0.778306      0.086622
C      5.61067     10.35284      6.59456        -0.559867      0.092846     -1.663537
C     15.36773     10.62556      6.59456         0.684865      0.022488     -1.849613
C      5.61067     10.62556     14.38384        -0.693395      0.010450      1.947772
C     15.36773     10.35284     14.38384         0.620118     -0.101258      1.556688
C     10.35284      6.59456      5.61067         0.114074     -1.613645     -0.912305
C     10.62556      6.59456     15.36773         0.060296     -2.303015      1.359552
C     10.62556     14.38384      5.61067         0.123639      1.583124     -0.662616
C     10.35284     14.38384     15.36773         0.012538      2.140109      0.926630
C      6.59456      5.61067     10.35284        -0.678359     -1.054771      0.212606
C      6.59456     15.36773     10.62556        -1.556049      0.348863      0.023960
C     14.38384      5.61067     10.62556         2.024347     -0.788932     -0.081196
C     14.38384     15.36773     10.35284         0.397429      0.798098      0.014742
C     10.40319      3.19606      7.29314        -0.030884      0.632570     -0.290461
C     10.35913      4.25547      6.23373         0.093630     -0.824577      0.773513
C      0.08601      7.29314      7.29314        -0.040088     -0.727494     -0.281690
C      0.13007      6.23373      6.23373        -0.162258      0.848563      0.848520
C      0.08601      3.19606      3.19606        -0.081292      0.463670      0.366109
C      0.13007      4.25547      4.25547         0.050267     -0.916865     -0.601806
C     10.40319      7.29314      3.19606         0.028950     -0.333533      0.260042
C     10.35913      6.23373      4.25547         0.059781      0.700129     -0.545466
C      7.29314     10.40319      3.19606        -0.375908      0.028779      0.579544
C      6.23373     10.35913      4.25547         0.316886      0.012997     -0.426875
C      7.29314      0.08601      7.29314        -0.426980      0.054473     -0.465652
C      6.23373      0.13007      6.23373         0.167892      0.104747      0.569380
C      3.19606      0.08601      3.19606         0.236580      0.018106      0.639062
C      4.25547      0.13007      4.25547        -0.432186      0.149125     -0.344543
C      3.19606     10.40319      7.29314         0.518863     -0.005812     -0.648455
C      4.25547     10.35913      6.23373        -0.380203      0.045558      0.639581
C      3.19606      7.29314     10.40319         0.339465     -0.563653     -0.017203
C      4.25547      6.23373     10.35913        -0.751954      0.353055     -0.119991
C      7.29314      7.29314      0.08601        -0.292177     -0.189691     -0.003404
C      6.23373      6.23373      0.13007         0.072160      0.475251     -0.034378
C      3.19606      3.19606      0.08601         0.426818      0.115817     -0.019099
C      4.25547      4.25547      0.13007        -0.093956     -0.330350     -0.031348
C      7.29314      3.19606     10.40319        -0.413577      0.538902     -0.012759
C      6.23373      4.25547     10.35913         0.541237     -0.711235     -0.085241
O     10.43466      3.58206      8.50569        -0.005701      0.134693      0.266363
O     10.54374     17.39634      8.50569         0.025397     -0.150972      0.287192
O     10.54374      3.58206     12.47271         0.076651      0.188701     -0.361863
O     10.43466     17.39634     12.47271        -0.069125     -0.247467     -0.331529
O      8.50569     10.43466      3.58206         0.481908     -0.010729      0.137394
O      8.50569     10.54374     17.39634         0.465720      0.057210     -0.124932
O     12.47271     10.54374      3.58206        -0.380701      0.031742      0.098967
O     12.47271     10.43466     17.39634        -0.536155     -0.050921     -0.125475
O      3.58206      8.50569     10.43466         0.123549      0.548955     -0.044369
O     17.39634      8.50569     10.54374        -0.148639      0.442650      0.027650
O      3.58206     12.47271     10.54374         0.094995     -0.364121      0.046832
O     17.39634     12.47271     10.43466        -0.198826     -0.609022     -0.014765
O      3.58206     10.43466      8.50569         0.212841     -0.073963      0.586230
O     17.39634     10.54374      8.50569        -0.173707      0.008001      0.498216
O      3.58206     10.54374     12.47271         0.304393     -0.050500     -0.550942
O     17.39634     10.43466     12.47271        -0.194548     -0.017292     -0.561328
O     10.43466      8.50569      3.58206         0.001660      0.454825      0.244089
O     10.54374      8.50569     17.39634         0.099036      0.651222     -0.337739
O     10.54374     12.47271      3.58206         0.013405     -0.575072      0.272852
O     10.43466     12.47271     17.39634        -0.069986     -0.627636     -0.332437
O      8.50569      3.58206     10.43466         0.555480      0.167949     -0.041172
O      8.50569     17.39634     10.54374         0.448726     -0.186251      0.037630
O     12.47271      3.58206     10.54374        -0.499647      0.185365      0.005224
O     12.47271     17.39634     10.43466        -0.538937     -0.165436     -0.026592
O     11.90042     11.90042     19.56718        -0.302706     -0.295556      0.241376
O     19.56718     19.56718     19.56718         0.303324      0.297447      0.236307
O     19.56718     11.90042     11.90042         0.303940     -0.316511     -0.274237
O     11.90042     19.56718     11.90042        -0.295502      0.311716     -0.267974
O      9.45224      1.03696      9.45224        -0.042457      0.038486     -0.115331
O      1.03696      9.45224      9.45224         0.042337     -0.036647     -0.113492
O      1.03696      1.03696      1.03696         0.067129      0.051883      0.074572
O      9.45224      9.45224      1.03696        -0.058927     -0.051352      0.075160
Zr     10.48920      2.52580     10.48920        -0.109889     -0.082217      0.062226
Zr     10.48920     18.45260     10.48920         0.078250      0.085850      0.019492
Zr     10.48920     10.48920      2.52580        -0.001145      0.017611     -0.194619
Zr     10.48920     10.48920     18.45260         0.023343      0.010055      0.267097
Zr      2.52580     10.48920     10.48920        -0.121521      0.004492     -0.022379
Zr     18.45260     10.48920     10.48920         0.173603      0.045604      0.026596
Pd     13.38197      8.52944      7.99598         0.111518     -0.218489     -0.086251
Pd      8.75192     14.02004     11.94758         0.122724      0.340461      0.215956
Pd     12.14854     11.12550     10.65669         0.260150     -0.027590     -0.069980
Pd     14.50037     10.78337     11.81287         0.366742      0.185910     -0.022356
Pd     11.12935      9.10052      6.62137         0.281435     -0.076485     -0.358717
Pd      7.44444      7.48954      9.16426        -0.268824      0.176356     -0.863138
Ir      9.86248     11.55192     11.96017         0.187158      0.429076      0.323036
Ir     13.28908      8.64385     10.67781         0.111050      0.379132     -0.146059
Ir     12.12845     11.07206      7.98078        -0.069087      0.037664     -0.030019
Ir      8.80925     13.82279      9.24643         0.114104      0.448687     -0.034308
Ir     11.03240      9.16735     12.03087        -0.395198     -0.076776      0.177854
Ir      8.70724      9.52817      8.02680        -0.021032     -0.074558     -0.045546
Ir     13.30052     12.98675      9.19043         0.460162      0.069799      0.047119
Ir     11.13164     13.39604      7.97021         0.067836      0.317971     -0.303856
Ir     14.34466     10.62493      9.31239        -0.122570     -0.065955     -0.155441
Ir      9.89246      7.03677     10.75491        -0.708167      0.127697      0.214039
Ir      7.63393     11.91320      7.98234        -0.047604      0.292839     -0.071477
Ir      9.78227      7.30510      8.17520        -0.283192      0.372487     -0.300741
Ir     11.20068     13.49919     13.19534         0.060633      0.298633      0.136847
Ir     12.12761      6.85839     12.08588        -0.101465      0.041291      0.034712
Ir      9.86290     11.45205      9.31950        -0.108579      0.159713     -0.156610
Ir     13.28852      8.65898     13.38256         0.212787      0.100606      0.151381
Ir     11.06055      9.09704      9.38938         0.066661      0.075986     -0.196135
Ir     11.01761     13.55077     10.54753         0.092215      0.388246      0.100654
Ir     13.25756     13.14431     11.93745         0.375339      0.216638     -0.313959
Ir     12.16167     11.19248     13.30166         0.080511      0.064581      0.149797
Ir      9.88106     11.36535      6.68127        -0.094316      0.303482      0.112600
Ir     11.99209      6.69605      9.43483         0.306225     -0.064960      0.120696
Ir      7.54077      7.55964     12.09083         0.292587      0.151726     -0.111674
Ir      7.63985     11.97292     10.63044        -0.155924      0.046375      0.059746
Ir     11.08084      9.33212     14.61547        -0.127167      0.015009     -0.181821
Ir      7.62882     11.99646     13.26591        -0.452586      0.149320     -0.194022
Ir      6.49722      9.96948      9.41673         0.110772      0.402415     -0.098127
Ir      8.70213      9.64763     13.34814         0.143234     -0.791370     -0.126680
Ir      6.48005      9.86412     11.82135        -0.072725      0.157963     -0.183945
Ir      9.60665      7.25803     13.36242        -0.882289      0.590021     -0.310576
Ir      9.84221     11.53394     14.59449         0.261208      0.253828     -0.133478
Ir      8.77989      9.48001     10.68856        -0.729038     -0.168439      0.212782
