152
# total energy = -1089.70335179 eVH     10.35389      5.87395      7.64558         1.347269     -2.617753      1.413685
H     10.62451     15.10445      7.64558        -0.323140      0.803651      1.600235
H     10.62451      5.87395     13.33282         0.963923     -1.026250     -2.115440
H     10.35389     15.10445     13.33282        -0.615697      0.655559     -1.645800
H      7.64558     10.35389      5.87395         0.363335     -0.204815     -0.034043
H      7.64558     10.62451     15.10445         0.620852     -0.316205      0.175566
H     13.33282     10.62451      5.87395        -0.449902      0.020462      0.105390
H     13.33282     10.35389     15.10445        -0.555949      0.249146      0.035158
H      5.87395      7.64558     10.35389        -0.408911      1.163559      0.375141
H     15.10445      7.64558     10.62451         0.081423      0.797777     -0.021860
H      5.87395     13.33282     10.62451         0.030103     -0.471449      0.003900
H     15.10445     13.33282     10.35389         0.091057     -0.899546      0.102078
H      5.87395     10.35389      7.64558        -0.025696     -0.030901      0.587244
H     15.10445     10.62451      7.64558         0.039828      0.036993      0.401529
H      5.87395     10.62451     13.33282        -0.148637      0.236355     -0.816099
H     15.10445     10.35389     13.33282         0.269477     -0.221398     -0.097620
H     10.35389      7.64558      5.87395        -0.382023      0.478932     -0.334890
H     10.62451      7.64558     15.10445         0.342818      0.880430      0.387988
H     10.62451     13.33282      5.87395        -0.165415     -0.958839     -0.197879
H     10.35389     13.33282     15.10445        -0.250360     -0.983946      0.269955
H      7.64558      5.87395     10.35389         1.035518     -0.453537      0.316246
H      7.64558     15.10445     10.62451         0.861199     -0.009165     -0.114391
H     13.33282      5.87395     10.62451        -0.878957     -0.144683      0.170078
H     13.33282     15.10445     10.35389        -0.524096      0.109234      0.043048
H     12.45634     12.45634     19.01126         0.261315      0.250769     -0.241191
H     19.01126     19.01126     19.01126        -0.258104     -0.254740     -0.238479
H     19.01126     12.45634     12.45634        -0.254241      0.261893      0.237315
H     12.45634     19.01126     12.45634         0.254463     -0.259931      0.235899
C     10.35284      5.61067      6.59456        -0.574666     -0.065581     -2.586259
C     10.62556     15.36773      6.59456         0.185507     -0.138633     -1.850573
C     10.62556      5.61067     14.38384        -0.112194     -0.744344      2.317821
C     10.35284     15.36773     14.38384         0.166950      0.114443      1.676246
C      6.59456     10.35284      5.61067        -0.567570     -0.065257     -0.409033
C      6.59456     10.62556     15.36773        -1.020318      0.003959      0.504012
C     14.38384     10.62556      5.61067         0.588606      0.001366     -0.186150
C     14.38384     10.35284     15.36773         0.809625     -0.116432      0.297038
C      5.61067      6.59456     10.35284        -0.681419     -0.900082      0.343698
C     15.36773      6.59456     10.62556         0.376236     -1.246699     -0.008390
C      5.61067     14.38384     10.62556        -0.438033      0.851399      0.027886
C     15.36773     14.38384     10.35284         0.380673      0.775948      0.102550
C      5.61067     10.35284      6.59456        -0.574293      0.086662     -1.569885
C     15.36773     10.62556      6.59456         0.666832      0.011010     -1.782452
C      5.61067     10.62556     14.38384        -0.680459      0.060976      1.804671
C     15.36773     10.35284     14.38384         0.581936     -0.090711      1.503126
C     10.35284      6.59456      5.61067         0.118374     -1.615220     -0.918157
C     10.62556      6.59456     15.36773         0.085832     -2.093546      1.258756
C     10.62556     14.38384      5.61067         0.109474      1.546126     -0.593751
C     10.35284     14.38384     15.36773        -0.003585      2.036262      0.826359
C      6.59456      5.61067     10.35284        -0.826506     -1.148225      0.248482
C      6.59456     15.36773     10.62556        -1.532317      0.328182      0.018907
C     14.38384      5.61067     10.62556         2.082949     -0.808043     -0.073438
C     14.38384     15.36773     10.35284         0.433099      0.742276      0.006878
C     10.40319      3.19606      7.29314        -0.032417      0.609221     -0.283777
C     10.35913      4.25547      6.23373         0.097323     -0.794806      0.768701
C      0.08601      7.29314      7.29314        -0.034703     -0.681095     -0.281316
C      0.13007      6.23373      6.23373        -0.154985      0.827788      0.773562
C      0.08601      3.19606      3.19606        -0.077174      0.450729      0.356581
C      0.13007      4.25547      4.25547         0.017220     -0.843138     -0.594084
C     10.40319      7.29314      3.19606         0.024592     -0.320242      0.249369
C     10.35913      6.23373      4.25547         0.071412      0.675260     -0.502639
C      7.29314     10.40319      3.19606        -0.385627      0.031482      0.555731
C      6.23373     10.35913      4.25547         0.308397      0.005916     -0.442121
C      7.29314      0.08601      7.29314        -0.431518      0.050327     -0.470418
C      6.23373      0.13007      6.23373         0.159919      0.105936      0.578353
C      3.19606      0.08601      3.19606         0.238680      0.016326      0.588621
C      4.25547      0.13007      4.25547        -0.405223      0.151539     -0.318981
C      3.19606     10.40319      7.29314         0.512721     -0.001463     -0.646978
C      4.25547     10.35913      6.23373        -0.369908      0.051618      0.607981
C      3.19606      7.29314     10.40319         0.336756     -0.546726     -0.017177
C      4.25547      6.23373     10.35913        -0.732966      0.355486     -0.142398
C      7.29314      7.29314      0.08601        -0.302539     -0.186606     -0.004758
C      6.23373      6.23373      0.13007         0.064984      0.480607     -0.034687
C      3.19606      3.19606      0.08601         0.442509      0.119591     -0.017334
C      4.25547      4.25547      0.13007        -0.106158     -0.347293     -0.039551
C      7.29314      3.19606     10.40319        -0.403419      0.524156     -0.012991
C      6.23373      4.25547     10.35913         0.545011     -0.692520     -0.105416
O     10.43466      3.58206      8.50569        -0.005247      0.129428      0.271376
O     10.54374     17.39634      8.50569         0.029862     -0.163716      0.296809
O     10.54374      3.58206     12.47271         0.075088      0.190862     -0.355185
O     10.43466     17.39634     12.47271        -0.066353     -0.246289     -0.327358
O      8.50569     10.43466      3.58206         0.496083     -0.010433      0.146071
O      8.50569     10.54374     17.39634         0.459805      0.051474     -0.122502
O     12.47271     10.54374      3.58206        -0.393614      0.030085      0.108856
O     12.47271     10.43466     17.39634        -0.523936     -0.042976     -0.116177
O      3.58206      8.50569     10.43466         0.125030      0.538545     -0.048318
O     17.39634      8.50569     10.54374        -0.148821      0.439141      0.027876
O      3.58206     12.47271     10.54374         0.096249     -0.370423      0.044419
O     17.39634     12.47271     10.43466        -0.198647     -0.598625     -0.018971
O      3.58206     10.43466      8.50569         0.228199     -0.078618      0.597201
O     17.39634     10.54374      8.50569        -0.178938      0.013869      0.503802
O      3.58206     10.54374     12.47271         0.304090     -0.046790     -0.532092
O     17.39634     10.43466     12.47271        -0.188358     -0.020304     -0.549421
O     10.43466      8.50569      3.58206         0.000184      0.443698      0.239299
O     10.54374      8.50569     17.39634         0.071305      0.614676     -0.315777
O     10.54374     12.47271      3.58206         0.014724     -0.560235      0.275357
O     10.43466     12.47271     17.39634        -0.058366     -0.611793     -0.313441
O      8.50569      3.58206     10.43466         0.546485      0.167478     -0.038205
O      8.50569     17.39634     10.54374         0.454931     -0.191440      0.036520
O     12.47271      3.58206     10.54374        -0.506225      0.180662      0.009780
O     12.47271     17.39634     10.43466        -0.535745     -0.170672     -0.024584
O     11.90042     11.90042     19.56718        -0.302427     -0.295728      0.243455
O     19.56718     19.56718     19.56718         0.301793      0.296725      0.238068
O     19.56718     11.90042     11.90042         0.305512     -0.313349     -0.273343
O     11.90042     19.56718     11.90042        -0.298587      0.307435     -0.268513
O      9.45224      1.03696      9.45224        -0.043479      0.039830     -0.112518
O      1.03696      9.45224      9.45224         0.041020     -0.040897     -0.110567
O      1.03696      1.03696      1.03696         0.062405      0.053181      0.075352
O      9.45224      9.45224      1.03696        -0.056349     -0.053721      0.075529
Zr     10.48920      2.52580     10.48920        -0.106681     -0.089101      0.049969
Zr     10.48920     18.45260     10.48920         0.075063      0.097783      0.013489
Zr     10.48920     10.48920      2.52580         0.003045      0.015698     -0.205211
Zr     10.48920     10.48920     18.45260         0.025837      0.010330      0.258782
Zr      2.52580     10.48920     10.48920        -0.118532      0.011061     -0.007430
Zr     18.45260     10.48920     10.48920         0.167154      0.042846      0.036377
Pd     13.36702      8.53894      8.00080         0.244440     -0.193511     -0.124237
Pd      8.74226     14.01012     11.93983         0.232529      0.187173      0.142081
Pd     12.15872     11.08887     10.63872         0.011684      1.133194      0.628325
Pd     14.46679     10.77242     11.79570         0.752071      0.186352      0.745985
Pd     11.11192      9.09254      6.62818         0.273430     -0.105592     -0.092219
Pd      7.46609      7.46826      9.21871        -0.073432      0.507822     -1.185166
Ir      9.87266     11.52872     11.97036        -0.106866      0.715495     -0.197249
Ir     13.26243      8.63203     10.68669         0.946847      0.227892     -0.177341
Ir     12.12918     11.08158      7.99023         0.131730     -0.427671     -0.445698
Ir      8.79787     13.80563      9.23951         0.209611      0.633672      0.131333
Ir     11.05413      9.16537     12.01574        -0.770588     -0.176440      0.558836
Ir      8.68172      9.59022      8.01798         0.582172     -2.393604      0.102279
Ir     13.27816     12.98170      9.19337         0.740444      0.348240      0.122385
Ir     11.12053     13.36648      7.98072        -0.038464      0.917653     -0.499950
Ir     14.34613     10.63262      9.34340         0.178029     -0.221198     -0.908006
Ir      9.91480      7.02263     10.77413        -0.801308      0.423980     -0.538660
Ir      7.66057     11.87500      7.98771        -0.929070      1.091942     -0.240700
Ir      9.76807      7.25516      8.17818        -0.218125      2.116294      0.501220
Ir     11.21055     13.44899     13.17300        -0.998225      1.636818      0.870247
Ir     12.13300      6.83502     12.06970        -0.058197      0.088133      0.425419
Ir      9.86143     11.44634      9.29385         0.212680      0.289146      0.705809
Ir     13.27739      8.66328     13.36713         0.263008      0.049860      0.390347
Ir     11.10368      9.13722      9.43893        -1.482113     -1.570379     -1.679119
Ir     11.02848     13.54079     10.55544        -0.200939      0.277919     -0.091440
Ir     13.22981     13.14039     11.96059         1.230865      0.035515     -0.866294
Ir     12.12445     11.20153     13.31909         1.132428     -0.447471     -0.332692
Ir      9.87568     11.34887      6.69454         0.231821      0.577820     -0.571371
Ir     12.01078      6.68471      9.43900        -0.081871      0.165492     -0.133486
Ir      7.57616      7.55827     12.11588        -0.803132     -0.038846     -0.655884
Ir      7.63206     11.93324     10.61677         0.038475      1.048249      0.374947
Ir     11.06731      9.38491     14.61210         0.340190     -1.765876      0.335200
Ir      7.64697     11.99537     13.27223        -0.506426      0.120645     -0.091941
Ir      6.51691      9.95163      9.45100        -0.595384      0.235588     -1.571963
Ir      8.70772      9.62668     13.34340        -0.091521     -0.116501      0.118071
Ir      6.54001      9.85762     11.78971        -1.648483      0.216912      1.650779
Ir      9.59264      7.30720     13.32480         0.481216     -0.756204      0.847496
Ir      9.86584     11.48621     14.59037        -0.546172      1.541206      0.313545
Ir      8.73300      9.51221     10.70334         1.284023     -0.988945     -0.495039
