152
# total energy = -1093.11074903 eVH     10.35389      5.87395      7.64558         0.161819     -0.129102      1.337675
H     10.62451     15.10445      7.64558        -0.166615      0.126928      1.425014
H     10.62451      5.87395     13.33282         0.166379     -0.063175     -1.189857
H     10.35389     15.10445     13.33282        -0.067063     -0.069408     -0.977753
H      7.64558     10.35389      5.87395         0.472141      0.013291     -0.053741
H      7.64558     10.62451     15.10445         0.415691      0.004574     -0.004964
H     13.33282     10.62451      5.87395        -0.661544     -0.037214     -0.004449
H     13.33282     10.35389     15.10445        -0.415999      0.010556      0.002865
H      5.87395      7.64558     10.35389        -0.139108      1.268428      0.154774
H     15.10445      7.64558     10.62451        -0.003453      0.535162      0.039909
H      5.87395     13.33282     10.62451        -0.060374     -0.241950      0.033865
H     15.10445     13.33282     10.35389         0.252064     -1.615261      0.081574
H      5.87395     10.35389      7.64558        -0.082811     -0.703228      0.461761
H     15.10445     10.62451      7.64558         0.519791      0.835855      0.038984
H      5.87395     10.62451     13.33282        -0.027052     -0.186194     -0.291506
H     15.10445     10.35389     13.33282        -0.099177      0.207105     -0.103295
H     10.35389      7.64558      5.87395        -0.196583      0.446131      0.035521
H     10.62451      7.64558     15.10445         0.061503      0.581393      0.230671
H     10.62451     13.33282      5.87395        -0.030865     -0.500086     -0.146113
H     10.35389     13.33282     15.10445        -0.165994     -0.483126      0.236853
H      7.64558      5.87395     10.35389         0.447438     -0.010298     -0.042768
H      7.64558     15.10445     10.62451         0.298345      0.021580     -0.035244
H     13.33282      5.87395     10.62451        -0.222300     -0.093975     -0.020997
H     13.33282     15.10445     10.35389        -0.508486      0.127883     -0.027685
H     12.45634     12.45634     19.01126         0.265058      0.247197     -0.244219
H     19.01126     19.01126     19.01126        -0.261696     -0.243165     -0.253107
H     19.01126     12.45634     12.45634        -0.262276      0.266142      0.232549
H     12.45634     19.01126     12.45634         0.274722     -0.253996      0.226594
C     10.35284      5.61067      6.59456        -0.230863     -0.267267     -1.748013
C     10.62556     15.36773      6.59456         0.426830      0.119185     -1.877489
C     10.62556      5.61067     14.38384        -0.320988     -0.108584      1.651681
C     10.35284     15.36773     14.38384         0.307958      0.130086      1.650434
C      6.59456     10.35284      5.61067        -0.825946     -0.104591     -0.297917
C      6.59456     10.62556     15.36773        -0.841207     -0.014251      0.095710
C     14.38384     10.62556      5.61067         1.039641      0.034595     -0.232554
C     14.38384     10.35284     15.36773         0.782733     -0.007969      0.190580
C      5.61067      6.59456     10.35284        -0.090393     -1.548577     -0.000146
C     15.36773      6.59456     10.62556         0.255258     -1.004972      0.032090
C      5.61067     14.38384     10.62556        -0.381873      0.749630      0.034978
C     15.36773     14.38384     10.35284         0.054886      1.856975     -0.059388
C      5.61067     10.35284      6.59456        -0.706946      0.246913     -1.783630
C     15.36773     10.62556      6.59456         0.773952     -0.206918     -2.007456
C      5.61067     10.62556     14.38384        -0.648132      0.092055      1.659260
C     15.36773     10.35284     14.38384         0.597965     -0.076916      1.417757
C     10.35284      6.59456      5.61067         0.029065     -1.583686     -0.792750
C     10.62556      6.59456     15.36773        -0.035535     -1.790792      0.769154
C     10.62556     14.38384      5.61067         0.111005      1.778494     -0.878624
C     10.35284     14.38384     15.36773         0.052199      1.906957      0.667883
C      6.59456      5.61067     10.35284        -0.772098     -0.796172     -0.012128
C      6.59456     15.36773     10.62556        -1.052230      0.565369      0.074919
C     14.38384      5.61067     10.62556         1.066135     -0.780047      0.099336
C     14.38384     15.36773     10.35284         0.881016      0.967482      0.005113
C     10.40319      3.19606      7.29314         0.000989      0.534543     -0.536594
C     10.35913      4.25547      6.23373        -0.025722     -0.842981      0.511985
C      0.08601      7.29314      7.29314         0.020449     -0.486960     -0.575314
C      0.13007      6.23373      6.23373         0.028370      0.886424      0.469971
C      0.08601      3.19606      3.19606         0.024486      0.706470      0.435464
C      0.13007      4.25547      4.25547        -0.040863     -0.765999     -0.492852
C     10.40319      7.29314      3.19606        -0.007436     -0.727837      0.502426
C     10.35913      6.23373      4.25547         0.020928      0.593338     -0.505339
C      7.29314     10.40319      3.19606        -0.304338     -0.009324      0.610850
C      6.23373     10.35913      4.25547         0.175188     -0.075826     -0.178323
C      7.29314      0.08601      7.29314        -0.233131     -0.030189     -0.391920
C      6.23373      0.13007      6.23373         0.151671     -0.093710      0.374951
C      3.19606      0.08601      3.19606         0.409346      0.010529      0.417072
C      4.25547      0.13007      4.25547        -0.190372      0.070012     -0.214887
C      3.19606     10.40319      7.29314         0.257184      0.025883     -0.485707
C      4.25547     10.35913      6.23373        -0.161045      0.101152      0.390730
C      3.19606      7.29314     10.40319         0.187306     -0.304222     -0.001566
C      4.25547      6.23373     10.35913        -0.553542      0.190250      0.041206
C      7.29314      7.29314      0.08601        -0.580339     -0.465428      0.005971
C      6.23373      6.23373      0.13007         0.121923      0.230670     -0.063282
C      3.19606      3.19606      0.08601         0.565302      0.409387     -0.000441
C      4.25547      4.25547      0.13007        -0.060389     -0.097594     -0.028812
C      7.29314      3.19606     10.40319        -0.210170      0.367314      0.001552
C      6.23373      4.25547     10.35913         0.625812     -0.259882      0.023963
O     10.43466      3.58206      8.50569         0.013102      0.229062      0.483179
O     10.54374     17.39634      8.50569        -0.029226     -0.228455      0.506453
O     10.54374      3.58206     12.47271         0.077755      0.152064     -0.369118
O     10.43466     17.39634     12.47271        -0.110620     -0.149174     -0.384113
O      8.50569     10.43466      3.58206         0.384925     -0.018964      0.053483
O      8.50569     10.54374     17.39634         0.451194      0.057843     -0.120583
O     12.47271     10.54374      3.58206        -0.514487     -0.009855      0.118970
O     12.47271     10.43466     17.39634        -0.436659     -0.054657     -0.114817
O      3.58206      8.50569     10.43466         0.170333      0.422270     -0.048485
O     17.39634      8.50569     10.54374        -0.082403      0.553734      0.046331
O      3.58206     12.47271     10.54374         0.046347     -0.507248      0.040321
O     17.39634     12.47271     10.43466        -0.175955     -0.465496     -0.019918
O      3.58206     10.43466      8.50569         0.184114     -0.015829      0.487471
O     17.39634     10.54374      8.50569        -0.120225     -0.009284      0.456007
O      3.58206     10.54374     12.47271         0.164800      0.081901     -0.441435
O     17.39634     10.43466     12.47271        -0.209091     -0.076815     -0.580933
O     10.43466      8.50569      3.58206         0.052611      0.609448      0.260894
O     10.54374      8.50569     17.39634         0.060922      0.516529     -0.219940
O     10.54374     12.47271      3.58206        -0.016116     -0.669591      0.282645
O     10.43466     12.47271     17.39634        -0.031116     -0.529913     -0.229294
O      8.50569      3.58206     10.43466         0.512164      0.148073     -0.030210
O      8.50569     17.39634     10.54374         0.608578     -0.094972      0.053076
O     12.47271      3.58206     10.54374        -0.634830      0.121947      0.024550
O     12.47271     17.39634     10.43466        -0.495826     -0.140803     -0.014972
O     11.90042     11.90042     19.56718        -0.309548     -0.285041      0.269179
O     19.56718     19.56718     19.56718         0.309690      0.272197      0.291943
O     19.56718     11.90042     11.90042         0.313029     -0.314971     -0.234246
O     11.90042     19.56718     11.90042        -0.334417      0.281366     -0.226522
O      9.45224      1.03696      9.45224        -0.041000      0.055173     -0.065013
O      1.03696      9.45224      9.45224         0.029732     -0.079773     -0.060125
O      1.03696      1.03696      1.03696         0.026242      0.048950      0.132871
O      9.45224      9.45224      1.03696        -0.035323     -0.084209      0.135273
Zr     10.48920      2.52580     10.48920        -0.104582     -0.120020     -0.006717
Zr     10.48920     18.45260     10.48920         0.132398      0.186409     -0.117098
Zr     10.48920     10.48920      2.52580         0.013152      0.089668     -0.322503
Zr     10.48920     10.48920     18.45260        -0.029182     -0.020090      0.147957
Zr      2.52580     10.48920     10.48920        -0.031427     -0.030312     -0.040905
Zr     18.45260     10.48920     10.48920         0.120140      0.114419     -0.175333
Pd     13.03201      8.07462      7.66285        -0.071564     -0.002521      0.020610
Pd      9.57437     14.60706     11.72252        -0.008736     -0.011222      0.004485
Pd     12.35162     10.92147     10.43590        -0.026407      0.044586     -0.029870
Pd     14.73756     10.07485     11.56262        -0.029423      0.005753      0.031867
Pd     11.02504      9.27935      6.18195        -0.035579      0.042907     -0.001382
Pd      6.99068      8.50116      9.03459        -0.106504     -0.010864     -0.054961
Ir     10.27718     11.87834     11.76143        -0.063008     -0.023747     -0.075930
Ir     12.97150      8.32044     10.33786        -0.093196     -0.060200      0.033453
Ir     12.30964     11.00392      7.72916         0.040822      0.041335      0.053147
Ir      9.66459     14.37246      9.12915         0.001067      0.020983      0.024401
Ir     10.84574      9.21209     11.73054        -0.029207     -0.046223      0.013179
Ir      8.72317     10.04754      7.77667        -0.023093     -0.029230      0.008382
Ir     13.86495     12.55297      9.02963        -0.037719     -0.024257     -0.037879
Ir     11.96315     13.58363      7.79465         0.006351     -0.002855      0.047929
Ir     14.31363      9.94615      9.02781         0.046554     -0.008450     -0.040543
Ir      9.26904      7.43191     10.42692         0.022079     -0.002196     -0.024481
Ir      8.14653     12.69691      7.83170         0.040518      0.022132     -0.023602
Ir      9.20892      7.58050      7.84599        -0.052688      0.009936      0.005660
Ir     11.86803     13.56705     13.01829        -0.034073      0.003410      0.009529
Ir     11.48230      6.72538     11.75484        -0.072876      0.025744     -0.061766
Ir     10.24633     11.80756      9.07732         0.041053      0.063764      0.041571
Ir     12.97215      8.38935     12.99371        -0.034633     -0.046208     -0.023237
Ir     10.86467      9.15472      8.99819        -0.004219      0.015939      0.048019
Ir     11.78049     13.60982     10.39599         0.019530     -0.038936     -0.015311
Ir     13.83931     12.66721     11.78298        -0.016139     -0.021079     -0.017735
Ir     12.39470     11.04749     13.09545         0.060200     -0.053278      0.017884
Ir     10.14014     11.68059      6.48417        -0.012749      0.005424      0.008269
Ir     11.37249      6.59458      9.23905        -0.021786      0.048579      0.022475
Ir      7.25007      8.35590     11.83820         0.004873     -0.023994     -0.058852
Ir      8.18442     12.70606     10.42980         0.070671     -0.000134     -0.019557
Ir     10.94736      9.28986     14.28808        -0.032471      0.008352      0.036661
Ir      8.10362     12.56086     12.98696         0.003776     -0.048745      0.006172
Ir      6.57466     11.21104      9.10415         0.014397     -0.051978      0.040443
Ir      8.69645     10.06425     13.08244        -0.029610     -0.046088     -0.024264
Ir      6.62125     10.90075     11.56509        -0.050421     -0.013227     -0.020175
Ir      9.19749      7.48560     13.08171        -0.050652     -0.005722     -0.033976
Ir     10.21317     11.67541     14.36426         0.008573     -0.031805      0.031389
Ir      8.75368     10.05164     10.42454        -0.030504      0.023469     -0.023140
