26
# total energy = -205.61028594 eVC      0.70404      1.25205      7.50000         0.009225     -0.031318     -0.000000
C     10.79458      6.56648      7.50000         0.033074     -0.005902     -0.000000
C      0.73746     11.42960      7.50000         0.016628      0.007919     -0.000000
C     11.53011      5.33337      7.50000        -0.009225      0.031318      0.000000
C      1.43957      0.01895      7.50000        -0.033074      0.005902     -0.000000
C     11.49669     -4.84418      7.50000        -0.016628     -0.007919      0.000000
C     10.79619     -3.65095      7.50000         0.002017      0.005567     -0.000000
C     10.85634      4.12478      7.50000         0.001710      0.007649      0.000000
C      2.82874      0.04205      7.50000        -0.031686      0.009424      0.000000
C      1.43796     10.23637      7.50000        -0.002017     -0.005567      0.000000
C      1.37781      2.46064      7.50000        -0.001710     -0.007649     -0.000000
C      9.40541      6.54337      7.50000         0.031686     -0.009424      0.000000
N      7.76699      0.25873      7.50000        -0.008110      0.008926      0.000000
N      4.46716      6.32669      7.50000         0.008110     -0.008926      0.000000
N      4.01094      0.08474      7.50000         0.027891     -0.002700     -0.000000
N     10.22887     -2.61276      7.50000         0.001147      0.030267      0.000000
N     10.29498      3.08345      7.50000        -0.006923     -0.027181     -0.000000
N      8.22321      6.50068      7.50000        -0.027891      0.002700      0.000000
N      2.00528      9.19818      7.50000        -0.001147     -0.030267      0.000000
N      1.93917      3.50197      7.50000         0.006923      0.027181     -0.000000
Ir      2.98788      7.53140      7.50000         0.006544      0.047223      0.000000
Ir      2.97994      5.13196      7.50000        -0.015393     -0.047035     -0.000000
Ir      6.29360      6.40795      7.50000         0.055590      0.007365      0.000000
Ir      9.24627     -0.94598      7.50000        -0.006544     -0.047223      0.000000
Ir      9.25421      1.45346      7.50000         0.015393      0.047035     -0.000000
Ir      5.94055      0.17748      7.50000        -0.055590     -0.007365      0.000000
