152
# total energy = -1060.01116783 eVH     10.35389      5.87395      7.64558        -0.260916      0.001717      1.143753
H     10.62451     15.10445      7.64558         0.042858     -0.091170      0.924677
H     10.62451      5.87395     13.33282        -0.236470      0.088995     -0.788178
H     10.35389     15.10445     13.33282         0.097545     -0.297015     -0.897054
H      7.64558     10.35389      5.87395         0.930560     -0.112793      0.182743
H      7.64558     10.62451     15.10445         0.337066     -0.044346     -0.077052
H     13.33282     10.62451      5.87395        -0.871696      0.211821      0.202720
H     13.33282     10.35389     15.10445        -0.277464     -0.011343     -0.068649
H      5.87395      7.64558     10.35389         0.088915      0.413670     -0.016263
H     15.10445      7.64558     10.62451         0.013733      0.513742     -0.033358
H      5.87395     13.33282     10.62451        -0.017467     -0.962961      0.077437
H     15.10445     13.33282     10.35389        -0.078742     -0.319956      0.004295
H      5.87395     10.35389      7.64558         0.270585      0.118460      0.417403
H     15.10445     10.62451      7.64558        -0.126139     -0.174997      0.650722
H      5.87395     10.62451     13.33282        -0.090848      0.459002     -0.615722
H     15.10445     10.35389     13.33282         0.265430     -0.654580     -0.812175
H     10.35389      7.64558      5.87395        -0.046129      0.481846      0.331014
H     10.62451      7.64558     15.10445         0.219212      0.749977     -0.047389
H     10.62451     13.33282      5.87395         0.121378     -0.561167      0.204888
H     10.35389     13.33282     15.10445         0.045406     -0.286278     -0.134104
H      7.64558      5.87395     10.35389         0.339318      0.093103      0.014325
H      7.64558     15.10445     10.62451         0.369013     -0.113005      0.156417
H     13.33282      5.87395     10.62451        -0.318535      0.127002     -0.037286
H     13.33282     15.10445     10.35389        -0.652679     -0.134085      0.144455
H     12.45634     12.45634     19.01126         0.254720      0.270670     -0.229774
H     19.01126     19.01126     19.01126        -0.245798     -0.268662     -0.245302
H     19.01126     12.45634     12.45634        -0.251815      0.269171      0.235109
H     12.45634     19.01126     12.45634         0.290435     -0.235981      0.234039
C     10.35284      5.61067      6.59456         0.396568     -0.429676     -1.463020
C     10.62556     15.36773      6.59456        -0.161358      0.568167     -0.627217
C     10.62556      5.61067     14.38384         0.387267     -0.349205      0.846584
C     10.35284     15.36773     14.38384        -0.234808      0.223275      1.108520
C      6.59456     10.35284      5.61067        -1.375853      0.018772     -0.246958
C      6.59456     10.62556     15.36773        -0.655072      0.059631      0.383279
C     14.38384     10.62556      5.61067         1.304832     -0.173613     -0.619240
C     14.38384     10.35284     15.36773         0.378679     -0.121964      0.358068
C      5.61067      6.59456     10.35284        -0.296415     -0.619985     -0.011258
C     15.36773      6.59456     10.62556         0.421145     -1.006131      0.029147
C      5.61067     14.38384     10.62556        -0.120590      1.159891     -0.181265
C     15.36773     14.38384     10.35284         0.456152      0.645906     -0.025911
C      5.61067     10.35284      6.59456        -0.364259     -0.101665     -0.710827
C     15.36773     10.62556      6.59456         0.419933      0.121025     -0.751771
C      5.61067     10.62556     14.38384        -0.384181     -0.175024      1.225392
C     15.36773     10.35284     14.38384         0.284162      0.193916      1.515467
C     10.35284      6.59456      5.61067        -0.050105     -0.711323     -0.631643
C     10.62556      6.59456     15.36773        -0.091787     -0.828090      0.345211
C     10.62556     14.38384      5.61067        -0.455495      0.418799     -0.695971
C     10.35284     14.38384     15.36773        -0.152934      0.586993      0.410883
C      6.59456      5.61067     10.35284        -0.499287     -0.338827      0.042153
C      6.59456     15.36773     10.62556        -0.397886      0.469071      0.049715
C     14.38384      5.61067     10.62556         0.449515     -0.388827      0.005749
C     14.38384     15.36773     10.35284         1.121779      0.504995     -0.071295
C     10.40319      3.19606      7.29314         0.001895      0.634903     -0.337432
C     10.35913      4.25547      6.23373         0.002318     -0.445547      0.291721
C      0.08601      7.29314      7.29314        -0.013385     -0.355820     -0.495731
C      0.13007      6.23373      6.23373        -0.080454      0.825374      0.061537
C      0.08601      3.19606      3.19606        -0.001630      0.669233      0.270522
C      0.13007      4.25547      4.25547         0.022340     -0.270497     -0.521245
C     10.40319      7.29314      3.19606        -0.067505     -1.156018      0.550982
C     10.35913      6.23373      4.25547        -0.038283      0.374266     -0.194291
C      7.29314     10.40319      3.19606        -1.084515     -0.058232      0.184758
C      6.23373     10.35913      4.25547         0.363639      0.081601     -0.537304
C      7.29314      0.08601      7.29314        -0.409330      0.034277     -0.565335
C      6.23373      0.13007      6.23373         0.178508      0.133077      0.131537
C      3.19606      0.08601      3.19606         0.696914      0.024359      0.164713
C      4.25547      0.13007      4.25547        -0.169159     -0.052722     -0.366978
C      3.19606     10.40319      7.29314         0.384514     -0.024485     -0.865188
C      4.25547     10.35913      6.23373        -0.163589     -0.084963      0.095668
C      3.19606      7.29314     10.40319         0.599120     -0.385222      0.001276
C      4.25547      6.23373     10.35913        -0.119479      0.180443      0.000055
C      7.29314      7.29314      0.08601        -0.402069     -0.328746     -0.015221
C      6.23373      6.23373      0.13007         0.201149      0.193815     -0.056718
C      3.19606      3.19606      0.08601         0.291098      0.480026     -0.023282
C      4.25547      4.25547      0.13007        -0.398509     -0.226363     -0.029689
C      7.29314      3.19606     10.40319        -0.282480      0.589198     -0.013903
C      6.23373      4.25547     10.35913         0.002549     -0.127250      0.022113
O     10.43466      3.58206      8.50569        -0.030399      0.105115      0.331807
O     10.54374     17.39634      8.50569         0.066853     -0.134567      0.591332
O     10.54374      3.58206     12.47271         0.026892      0.108177     -0.390364
O     10.43466     17.39634     12.47271         0.088652     -0.045597     -0.363347
O      8.50569     10.43466      3.58206         0.715025     -0.060471      0.014199
O      8.50569     10.54374     17.39634         0.449348      0.054194     -0.070118
O     12.47271     10.54374      3.58206        -0.652268      0.113144      0.204093
O     12.47271     10.43466     17.39634        -0.288593     -0.004932      0.012064
O      3.58206      8.50569     10.43466         0.045611      0.461766     -0.065332
O     17.39634      8.50569     10.54374        -0.061945      0.462598      0.054885
O      3.58206     12.47271     10.54374         0.113204     -0.584298      0.003065
O     17.39634     12.47271     10.43466        -0.167236     -0.736790     -0.061742
O      3.58206     10.43466      8.50569         0.217612     -0.063594      0.778405
O     17.39634     10.54374      8.50569        -0.117960      0.077811      0.599874
O      3.58206     10.54374     12.47271         0.000541     -0.001158     -0.270687
O     17.39634     10.43466     12.47271         0.043242     -0.013465     -0.211135
O     10.43466      8.50569      3.58206        -0.104889      0.576382     -0.114610
O     10.54374      8.50569     17.39634         0.064070      0.502928     -0.100848
O     10.54374     12.47271      3.58206         0.104731     -0.622796      0.134194
O     10.43466     12.47271     17.39634        -0.061676     -0.625734     -0.237400
O      8.50569      3.58206     10.43466         0.399288      0.029372     -0.031774
O      8.50569     17.39634     10.54374         0.627565     -0.152095      0.050577
O     12.47271      3.58206     10.54374        -0.508931      0.126656      0.037527
O     12.47271     17.39634     10.43466        -0.621665     -0.140075      0.035719
O     11.90042     11.90042     19.56718        -0.274755     -0.308557      0.237441
O     19.56718     19.56718     19.56718         0.301652      0.319124      0.299477
O     19.56718     11.90042     11.90042         0.285253     -0.324789     -0.230603
O     11.90042     19.56718     11.90042        -0.318065      0.230407     -0.201865
O      9.45224      1.03696      9.45224        -0.084927      0.082337     -0.066800
O      1.03696      9.45224      9.45224         0.098455     -0.116481     -0.044491
O      1.03696      1.03696      1.03696         0.081719      0.055067      0.100127
O      9.45224      9.45224      1.03696        -0.059801     -0.130898      0.130993
Zr     10.48920      2.52580     10.48920         0.032784     -0.086835      0.064459
Zr     10.48920     18.45260     10.48920        -0.169887      0.262746     -0.343349
Zr     10.48920     10.48920      2.52580         0.123502      0.355568     -0.355828
Zr     10.48920     10.48920     18.45260        -0.079263     -0.190369      0.171664
Zr      2.52580     10.48920     10.48920        -0.252118      0.124088      0.218983
Zr     18.45260     10.48920     10.48920         0.230456     -0.111056      0.009064
Pd      9.38518     14.21491      9.39729         0.006826      0.053591     -0.038454
Pd      8.63305     13.71264     12.98541        -0.005529     -0.009744     -0.002875
Pd     12.01330     14.41478      8.75850         0.020305      0.004657     -0.015995
Pd     12.78499     12.79599     10.60703        -0.015868      0.021585      0.024483
Pd     12.17174      7.09818     12.60301        -0.027684      0.017541      0.020046
Pd     11.24716     14.79655     11.53923        -0.042630      0.037151     -0.032389
Pd     10.11711     12.45789     11.15820        -0.030535      0.041494     -0.042020
Pd     13.47501     12.13487      7.97128         0.007523      0.001249      0.011514
Pd     11.47221     11.55043      6.11916         0.009173      0.007680     -0.008886
Pd      7.84008      8.59013      7.55824         0.020678     -0.034617     -0.014356
Pd      8.74581     11.72507      6.90269        -0.007979      0.005285     -0.012145
Pd     10.31541      9.45268      8.13341        -0.008103      0.015318      0.016540
Pd      8.50691     14.42394      6.88254         0.006433      0.009953     -0.035051
Pd     12.37688      9.02843      6.57425        -0.009894      0.009237      0.016211
Pd      9.74087      9.60470      5.55059         0.001403     -0.000180      0.008424
Pd      6.88552      9.46384     12.19218        -0.019887     -0.000706      0.001567
Pd     12.21168      6.67241      7.84674        -0.004093      0.014097      0.023752
Pd      5.96547     10.49262      9.74241        -0.013039     -0.031125     -0.020749
Pd      7.56741      7.09384     13.17993         0.013061      0.044434      0.081885
Ir     11.83753      9.68843     13.06237        -0.032046      0.004007     -0.014729
Ir     13.59519      8.97958     11.42835        -0.014799      0.013577      0.024299
Ir      9.42602      8.80965     13.81104         0.003683      0.027273      0.059620
Ir     10.57855     10.91385     14.84848        -0.021598     -0.007067      0.037267
Ir      7.31675     12.04977     11.37729        -0.037615     -0.013154     -0.008765
Ir     14.70687     10.81693     10.06017        -0.010958      0.014801      0.036906
Ir     12.20794     10.45390      9.64884        -0.007996      0.041825      0.016445
Ir      8.77805     11.04921     13.04298         0.020770     -0.013839     -0.005844
Ir     10.16392      9.83042     11.25206        -0.020464      0.002061     -0.023708
Ir     13.80792     11.35252     12.37876        -0.043895      0.005977      0.025531
Ir     11.71714     12.29087     13.12238        -0.073254      0.005951     -0.015421
Ir      8.54831     11.05932      9.40741        -0.012521      0.008676     -0.029972
Ir     11.60126      7.95897     10.04921        -0.025838      0.004380      0.020313
Ir      7.22269     12.96517      8.69306         0.020370      0.030957      0.007436
Ir      9.51037      6.99796      9.07428         0.004902      0.024911      0.039630
Ir      8.08741      8.73520     10.11697        -0.001592     -0.012314     -0.012684
Ir     10.76864     12.07807      8.55505        -0.004735      0.014296     -0.023228
Ir      9.59790      7.38559     11.63012        -0.014360      0.059660      0.002151
Ir     13.70517      8.66671      8.78798         0.004567      0.026549      0.005552
