152
# total energy = -1023.21718099 eVH     10.35389      5.87395      7.64558         0.492590      0.084461      0.716436
H     10.62451     15.10445      7.64558        -0.109022     -0.051960      0.815784
H     10.62451      5.87395     13.33282         0.144192      0.127742     -0.639983
H     10.35389     15.10445     13.33282        -0.167750     -0.124244     -0.540281
H      7.64558     10.35389      5.87395         0.311192     -0.022071      0.190228
H      7.64558     10.62451     15.10445         0.642949     -0.214389     -0.137169
H     13.33282     10.62451      5.87395        -0.776051     -0.161375      0.203576
H     13.33282     10.35389     15.10445        -0.431504     -0.101240     -0.061879
H      5.87395      7.64558     10.35389         0.208474      1.099459     -0.269180
H     15.10445      7.64558     10.62451        -0.176837      0.474701     -0.124100
H      5.87395     13.33282     10.62451         0.160501     -0.419053     -0.062216
H     15.10445     13.33282     10.35389        -0.131220     -0.912786      0.016185
H      5.87395     10.35389      7.64558         0.133108      0.096913      0.459810
H     15.10445     10.62451      7.64558         0.098785     -0.020951      1.056161
H      5.87395     10.62451     13.33282         0.194389     -0.028983     -0.385302
H     15.10445     10.35389     13.33282        -0.121479     -0.054465     -0.538097
H     10.35389      7.64558      5.87395         0.131957      0.874385      0.185163
H     10.62451      7.64558     15.10445        -0.010938      0.536090     -0.163664
H     10.62451     13.33282      5.87395        -0.014878     -0.585525      0.216936
H     10.35389     13.33282     15.10445        -0.285368     -0.891102     -0.130853
H      7.64558      5.87395     10.35389         0.444117      0.096161     -0.049577
H      7.64558     15.10445     10.62451         0.841640     -0.280431      0.029820
H     13.33282      5.87395     10.62451        -0.453017      0.187352     -0.067196
H     13.33282     15.10445     10.35389        -0.661143     -0.099851      0.163956
H     12.45634     12.45634     19.01126         0.252266      0.264194     -0.230952
H     19.01126     19.01126     19.01126        -0.252317     -0.229851     -0.262624
H     19.01126     12.45634     12.45634        -0.234628      0.272711      0.240653
H     12.45634     19.01126     12.45634         0.224590     -0.263374      0.249335
C     10.35284      5.61067      6.59456        -0.196649     -0.355827     -0.033968
C     10.62556     15.36773      6.59456         0.069735      0.368871     -1.235763
C     10.62556      5.61067     14.38384        -0.057173     -0.255545      0.812355
C     10.35284     15.36773     14.38384         0.041785      0.877512      0.418424
C      6.59456     10.35284      5.61067        -0.366160     -0.036254     -0.171735
C      6.59456     10.62556     15.36773        -0.833361      0.191929      0.366563
C     14.38384     10.62556      5.61067         0.472216      0.303383     -0.498785
C     14.38384     10.35284     15.36773         0.772318     -0.109968      0.444545
C      5.61067      6.59456     10.35284        -0.314677     -0.648451      0.431056
C     15.36773      6.59456     10.62556         0.166246     -0.511940      0.083815
C      5.61067     14.38384     10.62556        -0.144549      0.384356     -0.024112
C     15.36773     14.38384     10.35284         0.397224     -0.032200     -0.096886
C      5.61067     10.35284      6.59456        -0.258392     -0.022196     -0.784536
C     15.36773     10.62556      6.59456         0.607496     -0.267582     -1.341492
C      5.61067     10.62556     14.38384        -0.338824     -0.001300      0.427369
C     15.36773     10.35284     14.38384         0.490010     -0.163613      1.122887
C     10.35284      6.59456      5.61067        -0.168637     -0.480650     -0.432647
C     10.62556      6.59456     15.36773         0.057299     -0.640979      0.272662
C     10.62556     14.38384      5.61067         0.095990      0.989337     -0.497184
C     10.35284     14.38384     15.36773         0.254623      0.602194      0.522210
C      6.59456      5.61067     10.35284        -0.110378     -0.819342      0.073844
C      6.59456     15.36773     10.62556        -1.526409      0.415701      0.112306
C     14.38384      5.61067     10.62556         0.641309     -0.276858     -0.018777
C     14.38384     15.36773     10.35284        -0.426572      0.681845     -0.314282
C     10.40319      3.19606      7.29314         0.006096      0.830376     -0.295382
C     10.35913      4.25547      6.23373        -0.055085     -0.471170      0.498684
C      0.08601      7.29314      7.29314        -0.006705     -0.254058     -0.525355
C      0.13007      6.23373      6.23373         0.032493      0.151822      0.209695
C      0.08601      3.19606      3.19606        -0.010924      0.606564      0.196489
C      0.13007      4.25547      4.25547        -0.093551     -0.178986     -0.195828
C     10.40319      7.29314      3.19606        -0.008631     -0.636029      0.565120
C     10.35913      6.23373      4.25547        -0.045098      0.264977     -0.610044
C      7.29314     10.40319      3.19606        -0.308402      0.026488      0.946871
C      6.23373     10.35913      4.25547         0.168900      0.031799     -0.127938
C      7.29314      0.08601      7.29314        -0.305636     -0.035791     -0.301953
C      6.23373      0.13007      6.23373         0.328304     -0.050338      0.316841
C      3.19606      0.08601      3.19606         0.517873     -0.031605      0.708052
C      4.25547      0.13007      4.25547        -0.091989     -0.028870     -0.370979
C      3.19606     10.40319      7.29314         0.717531      0.001538     -0.408627
C      4.25547     10.35913      6.23373        -0.156195      0.028730      0.081894
C      3.19606      7.29314     10.40319         0.682948     -1.283031     -0.011591
C      4.25547      6.23373     10.35913        -0.659025      0.916557      0.080239
C      7.29314      7.29314      0.08601        -0.699580     -0.180045     -0.018961
C      6.23373      6.23373      0.13007         0.218496      0.202781      0.018538
C      3.19606      3.19606      0.08601         0.270171      0.296727     -0.021675
C      4.25547      4.25547      0.13007        -0.072168     -0.039595     -0.003902
C      7.29314      3.19606     10.40319        -0.360940      1.017328      0.015899
C      6.23373      4.25547     10.35913         1.066522     -0.025843      0.010002
O     10.43466      3.58206      8.50569        -0.042939      0.050317      0.386480
O     10.54374     17.39634      8.50569        -0.042797     -0.172667      0.591665
O     10.54374      3.58206     12.47271         0.049498      0.073459     -0.324890
O     10.43466     17.39634     12.47271        -0.008615     -0.141111     -0.635680
O      8.50569     10.43466      3.58206         0.338445     -0.030573     -0.032985
O      8.50569     10.54374     17.39634         0.470878      0.044697     -0.146046
O     12.47271     10.54374      3.58206        -0.474507      0.012492      0.081573
O     12.47271     10.43466     17.39634        -0.805302      0.002458     -0.194814
O      3.58206      8.50569     10.43466         0.108943      1.041405      0.014900
O     17.39634      8.50569     10.54374        -0.027812      0.306339      0.073771
O      3.58206     12.47271     10.54374         0.073170     -0.463402      0.049991
O     17.39634     12.47271     10.43466        -0.175827     -0.900821      0.057557
O      3.58206     10.43466      8.50569        -0.063225     -0.068182      0.326211
O     17.39634     10.54374      8.50569        -0.130883      0.041545      0.462453
O      3.58206     10.54374     12.47271         0.093914     -0.023777     -0.647274
O     17.39634     10.43466     12.47271        -0.186209      0.056244     -0.793770
O     10.43466      8.50569      3.58206         0.026446      0.638565      0.154981
O     10.54374      8.50569     17.39634         0.061850      0.437367     -0.081730
O     10.54374     12.47271      3.58206        -0.007642     -0.705253      0.224575
O     10.43466     12.47271     17.39634         0.033560     -0.843261     -0.240717
O      8.50569      3.58206     10.43466         0.437305      0.019871     -0.041622
O      8.50569     17.39634     10.54374         0.700873     -0.263174     -0.066227
O     12.47271      3.58206     10.54374        -0.462680      0.153159      0.041328
O     12.47271     17.39634     10.43466        -0.562731     -0.023642     -0.006245
O     11.90042     11.90042     19.56718        -0.294551     -0.313156      0.255557
O     19.56718     19.56718     19.56718         0.283098      0.261373      0.310302
O     19.56718     11.90042     11.90042         0.258868     -0.321787     -0.247130
O     11.90042     19.56718     11.90042        -0.272443      0.277249     -0.267790
O      9.45224      1.03696      9.45224        -0.083336      0.041559     -0.071531
O      1.03696      9.45224      9.45224         0.011891     -0.171922     -0.099021
O      1.03696      1.03696      1.03696         0.002149      0.069939      0.177110
O      9.45224      9.45224      1.03696        -0.063042     -0.103589      0.103646
Zr     10.48920      2.52580     10.48920         0.003900     -0.095597     -0.048382
Zr     10.48920     18.45260     10.48920         0.137854      0.367026      0.004841
Zr     10.48920     10.48920      2.52580         0.012108     -0.020137     -0.372668
Zr     10.48920     10.48920     18.45260        -0.153784     -0.051168      0.369922
Zr      2.52580     10.48920     10.48920        -0.331383      0.242959     -0.127987
Zr     18.45260     10.48920     10.48920         0.280324     -0.014405     -0.282371
Pd      8.99353     10.12683     13.30772        -0.057603     -0.026693      0.014413
Pd     10.68459      9.70753     10.86998        -0.026095     -0.014152     -0.080168
Pd     13.72772      8.37627     12.57638        -0.023453      0.003740      0.013022
Pd     11.00809     10.91400     14.95958        -0.025931     -0.023688     -0.005089
Pd     12.90687     11.00610     12.94716         0.015030      0.003736      0.032353
Pd     15.10960     11.10432     11.31333         0.000740     -0.025579      0.000100
Pd      6.59335      7.71045     12.32001        -0.019276      0.022520      0.021103
Pd      9.31550      7.28933      9.87291        -0.003479     -0.017384     -0.019125
Pd      9.21994      7.47187     12.63591        -0.011531     -0.028506     -0.005387
Pd     11.62792      7.14698     11.42932        -0.009875     -0.009569     -0.007280
Pd     11.70071      7.99734      8.92308         0.009595     -0.028057     -0.024289
Pd      7.38669     11.77719     11.77615        -0.008133     -0.020887     -0.033314
Pd      9.20604     14.78348      9.44206         0.017336      0.004236      0.014541
Pd      8.41523     12.55537     14.24723        -0.003387     -0.009965     -0.014875
Pd     14.09132     14.25171      8.31464         0.005380     -0.008304      0.003489
Pd     11.49499     13.65208      8.72180         0.012344     -0.004941      0.013193
Pd     14.16496     11.69306      8.89399         0.003637     -0.009305     -0.003992
Pd      8.72744     14.03483     12.05797         0.012013     -0.017526     -0.001909
Pd     12.27612     13.48649     14.13776        -0.015112     -0.001019     -0.019285
Pd     11.34649     14.43634     11.43918         0.008493     -0.022586      0.007891
Pd     14.08588     13.59924     12.27382         0.002911     -0.013099     -0.003641
Pd     12.42938     12.18076     10.72352        -0.005681     -0.035254      0.017892
Pd     12.75207     12.51331      6.68589        -0.001058     -0.011013      0.002366
Pd     13.93328      9.00470      8.01094         0.002042     -0.007206     -0.006230
Pd      6.93613      8.49650      8.76063        -0.000598     -0.004634     -0.014785
Pd      5.62427     10.10864     10.71790         0.018177      0.004178     -0.052599
Pd      9.39777      9.46065      8.13046         0.005930     -0.025443     -0.041255
Pd      8.56970      7.02626      7.24209        -0.016928     -0.033647     -0.009933
Pd      9.76608     12.13879     10.33404         0.001257     -0.014110      0.020632
Pd     11.63996     10.81326      8.50957        -0.010949     -0.024978     -0.023773
Pd     11.58105      9.09995      6.48502         0.013711      0.000892     -0.004050
Pd     10.07646     11.35476      6.35690        -0.007066      0.010152      0.032729
Ir     11.29416      8.99096     13.22748        -0.014305      0.026734     -0.014046
Ir     13.21811      9.62533     10.40077         0.000429     -0.025256     -0.017146
Ir     10.55943     12.22106     12.72020        -0.010182     -0.007903      0.002070
Ir      7.60225     11.00417      9.24766        -0.003177     -0.045600      0.031063
Ir      8.80771     12.64253      8.07798         0.052543      0.002378     -0.034376
Ir      8.19045      9.30401     11.00492        -0.017589      0.022069     -0.023222
