152
# total energy = -1059.11148888 eVH     10.35389      5.87395      7.64558        -0.124949      0.009948      1.045803
H     10.62451     15.10445      7.64558        -0.237281     -0.090567      1.007321
H     10.62451      5.87395     13.33282        -0.222423      0.071238     -0.820582
H     10.35389     15.10445     13.33282        -0.019448     -0.258416     -0.853565
H      7.64558     10.35389      5.87395         0.915258     -0.067298      0.231207
H      7.64558     10.62451     15.10445         0.331483     -0.067165     -0.093710
H     13.33282     10.62451      5.87395        -0.706625      0.005885      0.199172
H     13.33282     10.35389     15.10445        -0.340549      0.023436     -0.074781
H      5.87395      7.64558     10.35389         0.094189      0.386405     -0.118538
H     15.10445      7.64558     10.62451         0.156572      0.721787     -0.235898
H      5.87395     13.33282     10.62451        -0.093701     -1.154207      0.106504
H     15.10445     13.33282     10.35389        -0.024533     -0.328213     -0.000879
H      5.87395     10.35389      7.64558         0.311467      0.077502      0.423704
H     15.10445     10.62451      7.64558        -0.218270     -0.114556      0.592481
H      5.87395     10.62451     13.33282        -0.070324      0.641517     -0.401986
H     15.10445     10.35389     13.33282         0.089546     -0.248689     -0.641498
H     10.35389      7.64558      5.87395         0.059150      0.574577      0.371198
H     10.62451      7.64558     15.10445         0.248576      0.929821     -0.008763
H     10.62451     13.33282      5.87395         0.069327     -0.479876      0.201030
H     10.35389     13.33282     15.10445         0.100572     -0.410883     -0.102270
H      7.64558      5.87395     10.35389         0.363727      0.080658     -0.095993
H      7.64558     15.10445     10.62451         0.386963     -0.048795      0.219090
H     13.33282      5.87395     10.62451        -0.286407      0.070745     -0.011305
H     13.33282     15.10445     10.35389        -0.658455     -0.063040      0.114857
H     12.45634     12.45634     19.01126         0.253171      0.265008     -0.231588
H     19.01126     19.01126     19.01126        -0.239020     -0.279378     -0.243948
H     19.01126     12.45634     12.45634        -0.254537      0.262600      0.242395
H     12.45634     19.01126     12.45634         0.277704     -0.237339      0.240716
C     10.35284      5.61067      6.59456         0.372870     -0.308060     -1.366369
C     10.62556     15.36773      6.59456        -0.026623      0.529562     -0.853121
C     10.62556      5.61067     14.38384         0.447521     -0.521889      0.894490
C     10.35284     15.36773     14.38384        -0.148219      0.217432      1.125293
C      6.59456     10.35284      5.61067        -1.405593      0.075193     -0.289120
C      6.59456     10.62556     15.36773        -0.629055      0.058145      0.282067
C     14.38384     10.62556      5.61067         0.972320     -0.042748     -0.480675
C     14.38384     10.35284     15.36773         0.558358     -0.063727      0.247355
C      5.61067      6.59456     10.35284        -0.334639     -0.495814      0.043349
C     15.36773      6.59456     10.62556         0.267659     -1.330176      0.086315
C      5.61067     14.38384     10.62556         0.009254      1.267579     -0.221645
C     15.36773     14.38384     10.35284         0.535356      0.652828     -0.018439
C      5.61067     10.35284      6.59456        -0.400955     -0.184930     -1.000751
C     15.36773     10.62556      6.59456         0.416165      0.057265     -0.952872
C      5.61067     10.62556     14.38384        -0.508394     -0.214707      1.367141
C     15.36773     10.35284     14.38384         0.377303      0.020394      1.378500
C     10.35284      6.59456      5.61067        -0.067988     -0.937272     -0.678688
C     10.62556      6.59456     15.36773        -0.195082     -0.931063      0.389932
C     10.62556     14.38384      5.61067        -0.333116      0.457390     -0.666870
C     10.35284     14.38384     15.36773        -0.101913      0.812589      0.410872
C      6.59456      5.61067     10.35284        -0.350769     -0.281142      0.135469
C      6.59456     15.36773     10.62556        -0.591560      0.635164      0.029209
C     14.38384      5.61067     10.62556         0.443735     -0.525415     -0.016760
C     14.38384     15.36773     10.35284         1.187741      0.645336     -0.059915
C     10.40319      3.19606      7.29314        -0.002024      0.531304     -0.343342
C     10.35913      4.25547      6.23373        -0.043315     -0.456558      0.354672
C      0.08601      7.29314      7.29314        -0.033036     -0.250181     -0.499683
C      0.13007      6.23373      6.23373        -0.108945      0.840819      0.086509
C      0.08601      3.19606      3.19606        -0.004057      0.659648      0.290672
C      0.13007      4.25547      4.25547        -0.002373     -0.334995     -0.380071
C     10.40319      7.29314      3.19606        -0.059348     -0.874697      0.507970
C     10.35913      6.23373      4.25547        -0.055890      0.387693     -0.141361
C      7.29314     10.40319      3.19606        -0.911268     -0.048202      0.127716
C      6.23373     10.35913      4.25547         0.238738      0.087023     -0.375074
C      7.29314      0.08601      7.29314        -0.357775      0.045013     -0.884333
C      6.23373      0.13007      6.23373         0.211879      0.118644      0.182576
C      3.19606      0.08601      3.19606         0.584544      0.011605      0.295933
C      4.25547      0.13007      4.25547        -0.164337     -0.010887     -0.254251
C      3.19606     10.40319      7.29314         0.294156     -0.023135     -0.886252
C      4.25547     10.35913      6.23373        -0.192377     -0.088532      0.138177
C      3.19606      7.29314     10.40319         0.605683     -0.395283     -0.003595
C      4.25547      6.23373     10.35913        -0.211201      0.155475      0.032427
C      7.29314      7.29314      0.08601        -0.373629     -0.404189     -0.019928
C      6.23373      6.23373      0.13007         0.340498      0.308945      0.000056
C      3.19606      3.19606      0.08601         0.289105      0.467711     -0.022552
C      4.25547      4.25547      0.13007        -0.511690     -0.226383     -0.050609
C      7.29314      3.19606     10.40319        -0.281807      0.644175     -0.016401
C      6.23373      4.25547     10.35913        -0.016942     -0.239151      0.052758
O     10.43466      3.58206      8.50569        -0.026572      0.144844      0.364796
O     10.54374     17.39634      8.50569         0.104784     -0.156940      0.616236
O     10.54374      3.58206     12.47271         0.024794      0.102904     -0.384179
O     10.43466     17.39634     12.47271         0.096816     -0.110885     -0.391200
O      8.50569     10.43466      3.58206         0.749865     -0.099324      0.125611
O      8.50569     10.54374     17.39634         0.315206      0.046129     -0.000251
O     12.47271     10.54374      3.58206        -0.651950      0.092649      0.197821
O     12.47271     10.43466     17.39634        -0.274220      0.002560      0.016609
O      3.58206      8.50569     10.43466         0.068503      0.454147     -0.028840
O     17.39634      8.50569     10.54374        -0.057371      0.443606      0.057849
O      3.58206     12.47271     10.54374         0.098585     -0.551705      0.025610
O     17.39634     12.47271     10.43466        -0.184067     -0.742030     -0.069761
O      3.58206     10.43466      8.50569         0.249191     -0.048115      0.833366
O     17.39634     10.54374      8.50569        -0.258803      0.095752      0.796932
O      3.58206     10.54374     12.47271         0.031007     -0.031547     -0.320503
O     17.39634     10.43466     12.47271         0.049424     -0.012218     -0.201822
O     10.43466      8.50569      3.58206        -0.150020      0.593413      0.049905
O     10.54374      8.50569     17.39634         0.045058      0.437942     -0.110796
O     10.54374     12.47271      3.58206         0.096204     -0.672599      0.156376
O     10.43466     12.47271     17.39634        -0.052912     -0.600875     -0.203771
O      8.50569      3.58206     10.43466         0.376029      0.025176     -0.030775
O      8.50569     17.39634     10.54374         0.635286     -0.140645      0.052403
O     12.47271      3.58206     10.54374        -0.535122      0.139420      0.026627
O     12.47271     17.39634     10.43466        -0.623279     -0.163542      0.002067
O     11.90042     11.90042     19.56718        -0.280080     -0.317354      0.249200
O     19.56718     19.56718     19.56718         0.287500      0.327676      0.284589
O     19.56718     11.90042     11.90042         0.296484     -0.319428     -0.240568
O     11.90042     19.56718     11.90042        -0.308151      0.240820     -0.214963
O      9.45224      1.03696      9.45224        -0.071302      0.075433     -0.095637
O      1.03696      9.45224      9.45224         0.086072     -0.100093     -0.045510
O      1.03696      1.03696      1.03696         0.060847      0.018512      0.120239
O      9.45224      9.45224      1.03696        -0.015055     -0.110382      0.148561
Zr     10.48920      2.52580     10.48920         0.049042     -0.050364      0.043269
Zr     10.48920     18.45260     10.48920        -0.197480      0.250127     -0.287127
Zr     10.48920     10.48920      2.52580         0.058120      0.256601     -0.370308
Zr     10.48920     10.48920     18.45260        -0.011783     -0.162827      0.132855
Zr      2.52580     10.48920     10.48920        -0.207409      0.150202      0.169719
Zr     18.45260     10.48920     10.48920         0.164337     -0.125064      0.181284
Pd      9.31597     14.11234      9.77154         0.033970      0.005906     -0.226784
Pd      8.74404     13.48686     13.07695        -0.059060      0.146725      0.046070
Pd     11.90654     14.54140      8.77783        -0.021799     -0.094490      0.065769
Pd     12.86213     12.89126     10.46563         0.000285     -0.050983      0.047539
Pd     12.28465      7.13579     12.83469        -0.043867      0.001504     -0.042133
Pd     11.36582     14.73254     11.68402        -0.083317     -0.068948      0.009623
Pd     10.32852     12.26601     11.30813        -0.157296      0.081893     -0.023018
Pd     13.39950     12.20135      7.90464         0.028099     -0.061236      0.043130
Pd     11.30917     11.48860      6.17368         0.084072      0.037007     -0.027298
Pd      7.71247      8.48606      7.77485         0.111391      0.077221     -0.189145
Pd      8.65954     11.71278      7.05710         0.078962      0.020415     -0.066742
Pd     10.19590      9.52053      8.36786         0.137507     -0.031226     -0.053258
Pd      8.59729     14.41769      7.22398        -0.080876      0.003183     -0.190230
Pd     12.14688      9.03593      6.76019         0.134962      0.013737     -0.113549
Pd      9.55669      9.47232      5.76901         0.115778      0.034530     -0.044635
Pd      6.60450      9.50196     12.06071         0.294619      0.067278      0.061016
Pd     12.34867      6.62187      7.90250        -0.122182     -0.004592     -0.072439
Pd      6.00141     10.55017      9.60085        -0.038668     -0.026717      0.054191
Pd      7.52962      7.12504     12.70870         0.010049     -0.000089      0.097344
Ir     11.96644      9.73682     13.11587        -0.021933     -0.029111     -0.027708
Ir     13.75696      8.82932     11.49796        -0.128842      0.120746     -0.113223
Ir      9.51011      8.65441     13.70014        -0.018791      0.020770      0.014367
Ir     10.45982     11.06928     14.62388         0.191956     -0.081109      0.158427
Ir      7.23569     12.09032     11.44974         0.165657     -0.009780     -0.003059
Ir     14.89696     10.70823      9.89611        -0.096670      0.047536      0.029238
Ir     12.28196     10.47172      9.67240         0.011645     -0.000996      0.099734
Ir      8.69220     10.84449     12.94494         0.044572      0.161638      0.144482
Ir     10.31879      9.72099     11.31233        -0.256039      0.012299     -0.045280
Ir     13.80626     11.24400     12.07608         0.114964      0.003664      0.185100
Ir     11.97325     12.40754     13.13717        -0.111694     -0.055646     -0.028893
Ir      8.55832     11.15029      9.59145         0.025591     -0.183281     -0.139666
Ir     11.79013      7.94481     10.09834        -0.183301     -0.031183     -0.097524
Ir      7.10015     12.96962      8.78724         0.018289     -0.008501     -0.070128
Ir      9.59212      7.00408      9.09267        -0.048678     -0.057401     -0.087739
Ir      8.17343      8.71013     10.27278         0.014586     -0.037220     -0.100837
Ir     10.76056     12.14277      8.62363         0.063311     -0.133368      0.038612
Ir      9.87003      7.22045     11.58481        -0.092448      0.039162     -0.011363
Ir     13.77297      8.69913      8.72808        -0.042534     -0.081814     -0.012856
