152
# total energy = -1060.12358236 eVH     10.35389      5.87395      7.64558        -0.280919      0.054580      1.119968
H     10.62451     15.10445      7.64558         0.110640     -0.087488      0.910993
H     10.62451      5.87395     13.33282        -0.264082      0.080685     -0.786710
H     10.35389     15.10445     13.33282         0.105789     -0.300177     -0.859495
H      7.64558     10.35389      5.87395         0.930576     -0.149652      0.191274
H      7.64558     10.62451     15.10445         0.318792     -0.029029     -0.072837
H     13.33282     10.62451      5.87395        -0.860644      0.196817      0.205097
H     13.33282     10.35389     15.10445        -0.281636     -0.016398     -0.065049
H      5.87395      7.64558     10.35389         0.087873      0.418214     -0.004778
H     15.10445      7.64558     10.62451        -0.015848      0.488769     -0.022259
H      5.87395     13.33282     10.62451        -0.011231     -0.958570      0.082524
H     15.10445     13.33282     10.35389        -0.097593     -0.325560      0.005402
H      5.87395     10.35389      7.64558         0.286620      0.107865      0.401984
H     15.10445     10.62451      7.64558        -0.123259     -0.168259      0.671855
H      5.87395     10.62451     13.33282        -0.082802      0.463139     -0.628181
H     15.10445     10.35389     13.33282         0.240939     -0.605458     -0.854294
H     10.35389      7.64558      5.87395        -0.036919      0.485466      0.335781
H     10.62451      7.64558     15.10445         0.269222      0.772082     -0.032767
H     10.62451     13.33282      5.87395         0.123617     -0.577579      0.212042
H     10.35389     13.33282     15.10445         0.041523     -0.291997     -0.144912
H      7.64558      5.87395     10.35389         0.352488      0.104179      0.036566
H      7.64558     15.10445     10.62451         0.384254     -0.120223      0.171150
H     13.33282      5.87395     10.62451        -0.317186      0.132056     -0.029817
H     13.33282     15.10445     10.35389        -0.651718     -0.133983      0.152811
H     12.45634     12.45634     19.01126         0.256618      0.271781     -0.227420
H     19.01126     19.01126     19.01126        -0.247835     -0.267385     -0.244429
H     19.01126     12.45634     12.45634        -0.250158      0.270187      0.235653
H     12.45634     19.01126     12.45634         0.290510     -0.235111      0.235331
C     10.35284      5.61067      6.59456         0.399729     -0.409252     -1.413336
C     10.62556     15.36773      6.59456        -0.163911      0.595726     -0.654356
C     10.62556      5.61067     14.38384         0.379591     -0.323084      0.832182
C     10.35284     15.36773     14.38384        -0.219711      0.239991      1.069480
C      6.59456     10.35284      5.61067        -1.374789      0.023092     -0.225526
C      6.59456     10.62556     15.36773        -0.631273      0.063558      0.357780
C     14.38384     10.62556      5.61067         1.318004     -0.171796     -0.637774
C     14.38384     10.35284     15.36773         0.349985     -0.129324      0.364272
C      5.61067      6.59456     10.35284        -0.281540     -0.651511     -0.023345
C     15.36773      6.59456     10.62556         0.421606     -0.938903      0.027924
C      5.61067     14.38384     10.62556        -0.145423      1.163760     -0.178136
C     15.36773     14.38384     10.35284         0.464433      0.662496     -0.028593
C      5.61067     10.35284      6.59456        -0.368040     -0.099358     -0.720662
C     15.36773     10.62556      6.59456         0.396762      0.117783     -0.706439
C      5.61067     10.62556     14.38384        -0.371044     -0.167984      1.234070
C     15.36773     10.35284     14.38384         0.244656      0.196744      1.437407
C     10.35284      6.59456      5.61067        -0.057217     -0.719986     -0.579037
C     10.62556      6.59456     15.36773        -0.112270     -0.911822      0.349321
C     10.62556     14.38384      5.61067        -0.481303      0.414030     -0.713895
C     10.35284     14.38384     15.36773        -0.158104      0.603881      0.423658
C      6.59456      5.61067     10.35284        -0.517976     -0.330792      0.020977
C      6.59456     15.36773     10.62556        -0.361374      0.437848      0.062407
C     14.38384      5.61067     10.62556         0.450872     -0.366532      0.001191
C     14.38384     15.36773     10.35284         1.116724      0.486067     -0.078049
C     10.40319      3.19606      7.29314        -0.002617      0.723367     -0.345718
C     10.35913      4.25547      6.23373         0.014930     -0.415514      0.291878
C      0.08601      7.29314      7.29314        -0.014181     -0.384478     -0.504729
C      0.13007      6.23373      6.23373        -0.066537      0.847867      0.069364
C      0.08601      3.19606      3.19606        -0.003478      0.686580      0.265095
C      0.13007      4.25547      4.25547         0.038310     -0.272604     -0.547569
C     10.40319      7.29314      3.19606        -0.065593     -1.146133      0.601156
C     10.35913      6.23373      4.25547        -0.041056      0.362890     -0.201709
C      7.29314     10.40319      3.19606        -1.084766     -0.055587      0.201702
C      6.23373     10.35913      4.25547         0.370450      0.088945     -0.548856
C      7.29314      0.08601      7.29314        -0.461852      0.031102     -0.490643
C      6.23373      0.13007      6.23373         0.182782      0.123760      0.124755
C      3.19606      0.08601      3.19606         0.695432      0.023316      0.165008
C      4.25547      0.13007      4.25547        -0.176361     -0.053918     -0.355630
C      3.19606     10.40319      7.29314         0.405066     -0.027227     -0.903057
C      4.25547     10.35913      6.23373        -0.150256     -0.071943      0.104953
C      3.19606      7.29314     10.40319         0.612257     -0.399390      0.003118
C      4.25547      6.23373     10.35913        -0.111642      0.182683      0.001098
C      7.29314      7.29314      0.08601        -0.414785     -0.308278     -0.014048
C      6.23373      6.23373      0.13007         0.172566      0.184142     -0.072302
C      3.19606      3.19606      0.08601         0.289885      0.481503     -0.023068
C      4.25547      4.25547      0.13007        -0.408449     -0.233959     -0.033640
C      7.29314      3.19606     10.40319        -0.278276      0.596336     -0.009646
C      6.23373      4.25547     10.35913         0.005429     -0.110570      0.020548
O     10.43466      3.58206      8.50569        -0.028845      0.083282      0.311921
O     10.54374     17.39634      8.50569         0.060582     -0.123701      0.584199
O     10.54374      3.58206     12.47271         0.028258      0.105730     -0.393707
O     10.43466     17.39634     12.47271         0.090924     -0.049735     -0.402953
O      8.50569     10.43466      3.58206         0.707873     -0.062467      0.011348
O      8.50569     10.54374     17.39634         0.514667      0.060123     -0.086154
O     12.47271     10.54374      3.58206        -0.649351      0.119499      0.206227
O     12.47271     10.43466     17.39634        -0.288997     -0.004191      0.027216
O      3.58206      8.50569     10.43466         0.037284      0.458885     -0.070493
O     17.39634      8.50569     10.54374        -0.059687      0.449047      0.057753
O      3.58206     12.47271     10.54374         0.115368     -0.582855      0.001565
O     17.39634     12.47271     10.43466        -0.178381     -0.747119     -0.052217
O      3.58206     10.43466      8.50569         0.206792     -0.060108      0.784655
O     17.39634     10.54374      8.50569        -0.081729      0.073691      0.519308
O      3.58206     10.54374     12.47271        -0.003017     -0.001672     -0.266292
O     17.39634     10.43466     12.47271         0.033401     -0.011525     -0.235470
O     10.43466      8.50569      3.58206        -0.105102      0.563547     -0.114399
O     10.54374      8.50569     17.39634         0.068620      0.512827     -0.082972
O     10.54374     12.47271      3.58206         0.104054     -0.625800      0.132123
O     10.43466     12.47271     17.39634        -0.056399     -0.680382     -0.268495
O      8.50569      3.58206     10.43466         0.392309      0.024769     -0.039075
O      8.50569     17.39634     10.54374         0.630489     -0.155469      0.046733
O     12.47271      3.58206     10.54374        -0.507667      0.126555      0.034621
O     12.47271     17.39634     10.43466        -0.623442     -0.129629      0.042551
O     11.90042     11.90042     19.56718        -0.273496     -0.304894      0.231351
O     19.56718     19.56718     19.56718         0.304649      0.317466      0.299059
O     19.56718     11.90042     11.90042         0.283704     -0.323725     -0.232348
O     11.90042     19.56718     11.90042        -0.315923      0.229143     -0.202935
O      9.45224      1.03696      9.45224        -0.087548      0.092688     -0.063855
O      1.03696      9.45224      9.45224         0.108464     -0.121253     -0.046263
O      1.03696      1.03696      1.03696         0.083679      0.058378      0.096565
O      9.45224      9.45224      1.03696        -0.062315     -0.131297      0.132168
Zr     10.48920      2.52580     10.48920         0.031990     -0.096222      0.088865
Zr     10.48920     18.45260     10.48920        -0.172847      0.258707     -0.345885
Zr     10.48920     10.48920      2.52580         0.120815      0.352281     -0.343535
Zr     10.48920     10.48920     18.45260        -0.083621     -0.211549      0.196663
Zr      2.52580     10.48920     10.48920        -0.257140      0.125765      0.235020
Zr     18.45260     10.48920     10.48920         0.221836     -0.120912     -0.015313
Pd      9.39540     14.28897      9.32956        -0.002316      0.042891     -0.044040
Pd      8.61519     13.69417     13.00224        -0.006448     -0.012658      0.025542
Pd     12.04339     14.40601      8.74610         0.012569     -0.016787      0.008375
Pd     12.74539     12.82100     10.65802        -0.035666     -0.000285      0.045882
Pd     12.14713      7.11361     12.61609        -0.000583      0.000330     -0.003013
Pd     11.19381     14.86093     11.48284        -0.025177      0.043997     -0.030575
Pd     10.05119     12.52901     11.08433        -0.044551      0.049138     -0.044136
Pd     13.48860     12.14211      7.98628         0.012988      0.013721      0.005561
Pd     11.48572     11.56135      6.10827         0.008818      0.005872     -0.007579
Pd      7.86384      8.52703      7.53944         0.009659     -0.044643     -0.006513
Pd      8.73136     11.73716      6.87432        -0.011138      0.010738     -0.021976
Pd     10.30347      9.46221      8.14639        -0.009695     -0.002499      0.005214
Pd      8.50044     14.44359      6.82126        -0.013893      0.013469     -0.031999
Pd     12.36737      9.04142      6.59465         0.000028      0.012292      0.018173
Pd      9.74440      9.61411      5.55486        -0.000360      0.007924      0.002712
Pd      6.87233      9.46352     12.18906         0.004702      0.007007      0.003080
Pd     12.21069      6.70020      7.88504         0.000835      0.017645      0.019938
Pd      5.94290     10.45434      9.72902        -0.015152     -0.010938      0.000530
Pd      7.57441      7.15065     13.28985        -0.004463      0.019620      0.039567
Ir     11.77158      9.69516     13.06232        -0.035806     -0.010757      0.001261
Ir     13.56696      9.00814     11.45364        -0.020697      0.021487      0.013760
Ir      9.41291      8.83588     13.92488        -0.019644      0.005293      0.051193
Ir     10.54721     10.89017     14.92418        -0.021085     -0.033057      0.081354
Ir      7.28468     12.02047     11.36532        -0.000398     -0.015733      0.002026
Ir     14.67644     10.86406     10.13205        -0.019556      0.040505      0.048692
Ir     12.19874     10.49758      9.64862        -0.003823      0.019881     -0.016348
Ir      8.80799     11.04488     13.00446         0.034187      0.016649     -0.032771
Ir     10.13828      9.87592     11.18978        -0.006567      0.029182     -0.047914
Ir     13.72527     11.36981     12.45450        -0.059399      0.008506      0.064096
Ir     11.57621     12.27377     13.11450        -0.106709     -0.031492      0.000549
Ir      8.52212     11.07933      9.36743        -0.009847      0.001673     -0.023166
Ir     11.60124      7.98005     10.07972         0.005760      0.007987      0.014677
Ir      7.24680     13.01601      8.70273        -0.002079      0.028672      0.002603
Ir      9.52284      6.99755      9.13311         0.008805     -0.014984      0.032999
Ir      8.06480      8.75076     10.09504        -0.012180      0.013827     -0.010933
Ir     10.75518     12.09762      8.52493        -0.006712      0.003185     -0.017280
Ir      9.56325      7.48486     11.68648        -0.008132      0.055136      0.039910
Ir     13.70557      8.71352      8.81739         0.010197      0.012857      0.017936
