15
# total energy = -105.19604811 eVC      1.39907      0.00064     10.00000         0.322253     -0.033853      0.000000
C      5.43552      3.95064     10.00000        -0.322253      0.033853     -0.000000
C      6.13499     -2.73138     10.00000        -0.194765      0.271478     -0.000000
C      0.69960      6.68267     10.00000         0.194765     -0.271478      0.000000
C      6.13578      2.74025     10.00000        -0.174510     -0.309396      0.000000
C      0.69881      1.21103     10.00000         0.174510      0.309396      0.000000
O      1.38052      2.39260     10.00000        -0.090302     -0.155232      0.000000
O      5.45408      1.55869     10.00000         0.090302      0.155232      0.000000
O      4.07144      3.94987     10.00000         0.191711     -0.002192     -0.000000
O      2.76316      0.00141     10.00000        -0.191711      0.002192      0.000000
O      1.38191      5.50111     10.00000        -0.103226      0.173746      0.000000
O      5.45268     -1.54982     10.00000         0.103226     -0.173746      0.000000
Pd      3.41730      1.97564     10.00000         0.000000     -0.000000      0.000000
Pd      3.41730     -1.97139     10.00000         0.000000     -0.000000      0.000000
Pd      0.00000      3.94703     10.00000         0.000000     -0.000000      0.000000
