152
# total energy = -1022.88369789 eVH     10.35389      5.87395      7.64558         0.472787      0.026532      0.878673
H     10.62451     15.10445      7.64558        -0.049396      0.039374      0.771420
H     10.62451      5.87395     13.33282         0.145806      0.116761     -0.609869
H     10.35389     15.10445     13.33282        -0.248796     -0.082557     -0.558094
H      7.64558     10.35389      5.87395         0.330165     -0.033600      0.189609
H      7.64558     10.62451     15.10445         0.619361     -0.194334     -0.140829
H     13.33282     10.62451      5.87395        -0.835047     -0.314002      0.173365
H     13.33282     10.35389     15.10445        -0.449059     -0.082430     -0.067305
H      5.87395      7.64558     10.35389         0.135899      1.102275     -0.175874
H     15.10445      7.64558     10.62451        -0.170085      0.405500     -0.086372
H      5.87395     13.33282     10.62451         0.143820     -0.409728     -0.072657
H     15.10445     13.33282     10.35389        -0.077433     -0.969442     -0.179217
H      5.87395     10.35389      7.64558         0.130190      0.043581      0.485255
H     15.10445     10.62451      7.64558         0.108796     -0.196472      0.836996
H      5.87395     10.62451     13.33282         0.262772     -0.032580     -0.394234
H     15.10445     10.35389     13.33282        -0.153378      0.014374     -0.621704
H     10.35389      7.64558      5.87395         0.061500      0.888797      0.112318
H     10.62451      7.64558     15.10445         0.026045      0.542238     -0.145881
H     10.62451     13.33282      5.87395         0.047546     -0.594800      0.185296
H     10.35389     13.33282     15.10445        -0.255311     -0.897616     -0.111439
H      7.64558      5.87395     10.35389         0.522580      0.049346     -0.129508
H      7.64558     15.10445     10.62451         0.920674     -0.210969      0.278142
H     13.33282      5.87395     10.62451        -0.439270      0.185393     -0.059528
H     13.33282     15.10445     10.35389        -1.003129     -0.104787      0.251041
H     12.45634     12.45634     19.01126         0.265973      0.257591     -0.225300
H     19.01126     19.01126     19.01126        -0.247212     -0.235135     -0.262243
H     19.01126     12.45634     12.45634        -0.239944      0.271068      0.239317
H     12.45634     19.01126     12.45634         0.211628     -0.282113      0.252791
C     10.35284      5.61067      6.59456        -0.111109     -0.448821     -0.364611
C     10.62556     15.36773      6.59456         0.022030      0.352031     -1.154530
C     10.62556      5.61067     14.38384        -0.031656     -0.215516      0.730727
C     10.35284     15.36773     14.38384         0.167263      0.779812      0.164453
C      6.59456     10.35284      5.61067        -0.407161     -0.039667     -0.177001
C      6.59456     10.62556     15.36773        -0.790443      0.153896      0.349776
C     14.38384     10.62556      5.61067         0.581727      0.291207     -0.376050
C     14.38384     10.35284     15.36773         0.721535     -0.119151      0.429622
C      5.61067      6.59456     10.35284        -0.421336     -0.725898      0.291060
C     15.36773      6.59456     10.62556         0.196933     -0.464988      0.047491
C      5.61067     14.38384     10.62556        -0.251759      0.382007     -0.026656
C     15.36773     14.38384     10.35284         0.408370      0.142471      0.173934
C      5.61067     10.35284      6.59456        -0.307970     -0.017168     -0.888873
C     15.36773     10.62556      6.59456         0.579489     -0.168523     -1.236689
C      5.61067     10.62556     14.38384        -0.450577      0.006605      0.866299
C     15.36773     10.35284     14.38384         0.518306     -0.183667      1.246980
C     10.35284      6.59456      5.61067        -0.038407     -0.933812     -0.659750
C     10.62556      6.59456     15.36773         0.042862     -0.642270      0.288086
C     10.62556     14.38384      5.61067         0.049840      1.226168     -0.684976
C     10.35284     14.38384     15.36773         0.109242      0.611926      0.645673
C      6.59456      5.61067     10.35284        -0.202690     -0.881870      0.127839
C      6.59456     15.36773     10.62556        -1.714052      0.487922      0.046654
C     14.38384      5.61067     10.62556         0.589976     -0.230003     -0.007767
C     14.38384     15.36773     10.35284         0.136195      0.561735     -0.244616
C     10.40319      3.19606      7.29314         0.014948      0.894858     -0.255453
C     10.35913      4.25547      6.23373        -0.056401     -0.372592      0.601858
C      0.08601      7.29314      7.29314        -0.008805     -0.241435     -0.469484
C      0.13007      6.23373      6.23373         0.003328      0.116239      0.207125
C      0.08601      3.19606      3.19606        -0.016569      0.649777      0.185996
C      0.13007      4.25547      4.25547        -0.088695     -0.198610     -0.169902
C     10.40319      7.29314      3.19606        -0.002543     -0.693751      0.525253
C     10.35913      6.23373      4.25547        -0.014152      0.493357     -0.428936
C      7.29314     10.40319      3.19606        -0.338055      0.023575      0.877816
C      6.23373     10.35913      4.25547         0.212844      0.013158     -0.143918
C      7.29314      0.08601      7.29314        -0.309681     -0.045581     -0.280122
C      6.23373      0.13007      6.23373         0.272346     -0.057878      0.299076
C      3.19606      0.08601      3.19606         0.449866     -0.051408      1.282921
C      4.25547      0.13007      4.25547        -0.114595     -0.027594     -0.462542
C      3.19606     10.40319      7.29314         0.699552      0.013898     -0.266572
C      4.25547     10.35913      6.23373        -0.135289      0.030450      0.103275
C      3.19606      7.29314     10.40319         0.607992     -1.271472      0.023002
C      4.25547      6.23373     10.35913        -0.709597      0.848857      0.053852
C      7.29314      7.29314      0.08601        -0.649215     -0.174380     -0.021605
C      6.23373      6.23373      0.13007         0.173864      0.267830     -0.007474
C      3.19606      3.19606      0.08601         0.242317      0.253374     -0.019277
C      4.25547      4.25547      0.13007        -0.056404     -0.037232      0.011386
C      7.29314      3.19606     10.40319        -0.370647      0.813423      0.014702
C      6.23373      4.25547     10.35913         0.884947     -0.158672      0.008432
O     10.43466      3.58206      8.50569        -0.049368      0.036511      0.326305
O     10.54374     17.39634      8.50569        -0.023992     -0.180149      0.600302
O     10.54374      3.58206     12.47271         0.054576      0.060345     -0.323730
O     10.43466     17.39634     12.47271        -0.022904     -0.126155     -0.584501
O      8.50569     10.43466      3.58206         0.373836     -0.025496     -0.018034
O      8.50569     10.54374     17.39634         0.471485      0.052508     -0.142354
O     12.47271     10.54374      3.58206        -0.295819      0.046925     -0.070428
O     12.47271     10.43466     17.39634        -0.850953      0.019220     -0.226979
O      3.58206      8.50569     10.43466         0.044849      0.928574      0.037836
O     17.39634      8.50569     10.54374        -0.041006      0.340555      0.077883
O      3.58206     12.47271     10.54374         0.063364     -0.422048      0.064237
O     17.39634     12.47271     10.43466        -0.170904     -0.787544      0.022469
O      3.58206     10.43466      8.50569        -0.054948     -0.066439      0.226067
O     17.39634     10.54374      8.50569        -0.136241      0.043631      0.463871
O      3.58206     10.54374     12.47271        -0.014349     -0.050353     -0.886701
O     17.39634     10.43466     12.47271        -0.197926      0.046079     -0.772382
O     10.43466      8.50569      3.58206         0.045639      0.678824      0.189511
O     10.54374      8.50569     17.39634         0.053948      0.439826     -0.081073
O     10.54374     12.47271      3.58206        -0.007665     -0.735895      0.225907
O     10.43466     12.47271     17.39634         0.047288     -0.847355     -0.272182
O      8.50569      3.58206     10.43466         0.486533      0.071117     -0.038019
O      8.50569     17.39634     10.54374         0.650390     -0.251747     -0.060116
O     12.47271      3.58206     10.54374        -0.482947      0.163353      0.039527
O     12.47271     17.39634     10.43466        -0.526255     -0.035047     -0.028554
O     11.90042     11.90042     19.56718        -0.303676     -0.312110      0.264590
O     19.56718     19.56718     19.56718         0.286460      0.272480      0.320986
O     19.56718     11.90042     11.90042         0.277243     -0.330352     -0.243801
O     11.90042     19.56718     11.90042        -0.230602      0.290098     -0.241734
O      9.45224      1.03696      9.45224        -0.074988      0.047895     -0.066760
O      1.03696      9.45224      9.45224         0.052549     -0.145874     -0.059896
O      1.03696      1.03696      1.03696         0.040308      0.035672      0.188241
O      9.45224      9.45224      1.03696        -0.041988     -0.091636      0.123160
Zr     10.48920      2.52580     10.48920        -0.005754     -0.075264     -0.026060
Zr     10.48920     18.45260     10.48920         0.059849      0.305465     -0.072083
Zr     10.48920     10.48920      2.52580        -0.093208      0.010937     -0.375241
Zr     10.48920     10.48920     18.45260        -0.134623     -0.149798      0.330725
Zr      2.52580     10.48920     10.48920        -0.358430      0.313642     -0.455251
Zr     18.45260     10.48920     10.48920         0.248130      0.030612     -0.271453
Pd      9.03234     10.24852     13.32856        -0.009362     -0.012521      0.003640
Pd     10.57791      9.71883     10.95238         0.002329     -0.002128     -0.024210
Pd     13.77122      8.53489     12.69071        -0.002323      0.003882     -0.013546
Pd     11.00229     11.06560     15.00893        -0.002525     -0.017043      0.004029
Pd     12.86568     11.17373     13.00556         0.016882      0.004013      0.015025
Pd     15.00052     10.94282     11.34192         0.000377      0.016805     -0.008498
Pd      6.65073      7.44849     12.34342        -0.004802      0.023277      0.001242
Pd      9.23564      7.27036     10.10034         0.006925      0.012057     -0.030143
Pd      9.27110      7.59834     12.78111         0.004643     -0.009560     -0.019083
Pd     11.70392      7.28924     11.46061         0.001143      0.000976     -0.014340
Pd     11.42869      7.99185      8.85922         0.023665     -0.002960     -0.014293
Pd      7.26137     11.83398     11.94988         0.007276     -0.001476     -0.012339
Pd      8.90891     14.67247      9.33264         0.036934      0.008465      0.019356
Pd      8.41622     12.64751     14.32105        -0.006177     -0.007177      0.000488
Pd     13.54968     14.11198      8.54651         0.081577      0.022649     -0.040440
Pd     11.00693     13.34501      8.52640         0.071038      0.033580      0.033846
Pd     14.10464     11.54293      8.93005         0.001892      0.019450     -0.012557
Pd      8.62334     14.10213     12.10165         0.011990     -0.008398      0.002204
Pd     12.24064     13.70966     14.03195        -0.001405      0.006081      0.006174
Pd     11.16300     14.42741     11.16036         0.030059     -0.015725      0.046298
Pd     14.04534     13.55811     12.16717        -0.008494      0.016966     -0.000639
Pd     12.30529     12.14129     10.66877         0.002515     -0.019789      0.012752
Pd     12.69053     12.35847      6.70758         0.013413      0.031868     -0.015056
Pd     13.69846      8.94093      7.94321         0.029979      0.001618     -0.007180
Pd      6.87472      8.47342      8.84402         0.005115      0.007208     -0.003406
Pd      5.52650      9.95129     11.23688         0.007611      0.022410     -0.046444
Pd      9.17385      9.74500      8.31362         0.028035     -0.028465     -0.018621
Pd      8.81972      7.25494      7.43553        -0.027700     -0.020882     -0.026914
Pd      9.52983     12.08469     10.41767         0.037732      0.003068      0.028531
Pd     11.56653     10.71152      8.54587         0.011968      0.010104     -0.025193
Pd     11.27936      9.20959      6.43763         0.035982     -0.015743     -0.012889
Pd      9.93695     11.52741      6.37126         0.025853     -0.018749     -0.000018
Ir     11.34962      9.11070     13.33528        -0.002043      0.008109     -0.025180
Ir     13.08342      9.49717     10.40171         0.015644      0.004411     -0.010220
Ir     10.52960     12.34577     12.70846        -0.011200     -0.018686     -0.006240
Ir      7.16659     10.99087      9.49331         0.028208     -0.009694     -0.006822
Ir      8.43965     12.45794      8.16714         0.065694      0.028179     -0.031225
Ir      8.06585      9.29696     11.11136         0.008206      0.007932     -0.003025
