152
# total energy = -1005.80782062 eVH     10.35389      5.87395      7.64558         0.163953      0.094639      0.561853
H     10.62451     15.10445      7.64558        -0.110999     -0.150190      0.498953
H     10.62451      5.87395     13.33282         0.549925      0.102867     -0.671234
H     10.35389     15.10445     13.33282         0.042556     -0.168687     -0.448115
H      7.64558     10.35389      5.87395         0.354712      0.032237      0.168739
H      7.64558     10.62451     15.10445         0.784388      0.485733     -0.032816
H     13.33282     10.62451      5.87395        -0.453630      0.343862      0.118402
H     13.33282     10.35389     15.10445        -0.835417     -0.070883      0.012395
H      5.87395      7.64558     10.35389         0.289380      1.131799      0.048266
H     15.10445      7.64558     10.62451        -0.104503      0.480857      0.285609
H      5.87395     13.33282     10.62451         0.176909     -0.667510     -0.088697
H     15.10445     13.33282     10.35389        -0.063544     -0.972938     -0.225741
H      5.87395     10.35389      7.64558         0.219770      0.033496      0.457972
H     15.10445     10.62451      7.64558        -0.137427      0.476611      0.787651
H      5.87395     10.62451     13.33282         0.131485      0.341780     -0.792136
H     15.10445     10.35389     13.33282        -0.074712     -0.038741     -0.668611
H     10.35389      7.64558      5.87395         0.338632      1.123292      0.050591
H     10.62451      7.64558     15.10445         0.699207      0.645188     -0.166473
H     10.62451     13.33282      5.87395        -0.401859     -0.793316      0.252778
H     10.35389     13.33282     15.10445        -0.076754     -0.466595     -0.272174
H      7.64558      5.87395     10.35389         0.942391      0.045683     -0.251945
H      7.64558     15.10445     10.62451         0.818401     -0.184682      0.000540
H     13.33282      5.87395     10.62451        -0.760514      0.185396      0.546335
H     13.33282     15.10445     10.35389        -0.386801     -0.115074     -0.108023
H     12.45634     12.45634     19.01126         0.243349      0.268976     -0.236514
H     19.01126     19.01126     19.01126        -0.266511     -0.246052     -0.251615
H     19.01126     12.45634     12.45634        -0.272310      0.264559      0.222812
H     12.45634     19.01126     12.45634         0.234887     -0.263139      0.270712
C     10.35284      5.61067      6.59456        -0.334811     -0.694122     -0.046802
C     10.62556     15.36773      6.59456         0.089074      0.350050     -0.259191
C     10.62556      5.61067     14.38384        -0.188460     -0.484316     -0.131747
C     10.35284     15.36773     14.38384         0.008741      0.221064      0.420525
C      6.59456     10.35284      5.61067        -0.370257      0.007443     -0.256542
C      6.59456     10.62556     15.36773        -0.419624     -0.065782      0.639696
C     14.38384     10.62556      5.61067        -0.234030     -0.458066     -0.621686
C     14.38384     10.35284     15.36773         1.006794     -0.082978      0.183588
C      5.61067      6.59456     10.35284        -0.629128     -0.124246     -0.346045
C     15.36773      6.59456     10.62556         0.558509      0.002534     -0.283417
C      5.61067     14.38384     10.62556        -0.303831      0.893235      0.034081
C     15.36773     14.38384     10.35284         0.293569      0.983114      0.045064
C      5.61067     10.35284      6.59456        -0.267651     -0.022461     -0.714801
C     15.36773     10.62556      6.59456         0.465215     -0.281812      0.154866
C      5.61067     10.62556     14.38384        -0.604074     -0.222583      0.055271
C     15.36773     10.35284     14.38384         0.417950     -0.044650      1.028507
C     10.35284      6.59456      5.61067        -0.199231     -0.666736     -0.560882
C     10.62556      6.59456     15.36773        -0.150724     -0.160438      0.573828
C     10.62556     14.38384      5.61067         0.211844      1.070971     -0.346024
C     10.35284     14.38384     15.36773        -0.002039      0.767210      0.388339
C      6.59456      5.61067     10.35284        -0.090648     -1.054056      0.191629
C      6.59456     15.36773     10.62556        -0.981857      0.238376      0.089342
C     14.38384      5.61067     10.62556         0.357076     -0.531762     -0.373598
C     14.38384     15.36773     10.35284         0.164090      0.412627     -0.068375
C     10.40319      3.19606      7.29314         0.009962      0.788407     -0.479757
C     10.35913      4.25547      6.23373         0.074904     -0.565883      0.079007
C      0.08601      7.29314      7.29314        -0.051684     -0.594028     -0.285650
C      0.13007      6.23373      6.23373        -0.037011      0.136397      0.555140
C      0.08601      3.19606      3.19606         0.008853      1.395863      0.284395
C      0.13007      4.25547      4.25547         0.041320     -0.725297     -0.201708
C     10.40319      7.29314      3.19606         0.007958     -0.322196      0.278707
C     10.35913      6.23373      4.25547         0.024123      0.035931     -0.728706
C      7.29314     10.40319      3.19606        -0.244930      0.017818      0.563631
C      6.23373     10.35913      4.25547         0.152130      0.049358     -0.066226
C      7.29314      0.08601      7.29314        -0.658213     -0.071204     -0.333930
C      6.23373      0.13007      6.23373         0.737207     -0.118340      0.461561
C      3.19606      0.08601      3.19606         0.967636     -0.019761      0.591466
C      4.25547      0.13007      4.25547        -0.575182     -0.068001     -0.564332
C      3.19606     10.40319      7.29314         0.499603     -0.010491     -0.772497
C      4.25547     10.35913      6.23373        -0.279489      0.071973      0.209822
C      3.19606      7.29314     10.40319         0.288012     -1.276793      0.031245
C      4.25547      6.23373     10.35913        -0.992214      0.051855      0.119921
C      7.29314      7.29314      0.08601        -0.422071     -0.402162     -0.019061
C      6.23373      6.23373      0.13007         0.486499      0.237261      0.001119
C      3.19606      3.19606      0.08601         0.464763      0.383316     -0.038324
C      4.25547      4.25547      0.13007        -0.143078     -0.626923     -0.035430
C      7.29314      3.19606     10.40319        -0.360268      0.426769      0.058684
C      6.23373      4.25547     10.35913         0.281936     -0.717512      0.140448
O     10.43466      3.58206      8.50569        -0.010102      0.076989      0.475975
O     10.54374     17.39634      8.50569         0.052416     -0.132504      0.440592
O     10.54374      3.58206     12.47271         0.033874     -0.118366     -0.170121
O     10.43466     17.39634     12.47271        -0.032735     -0.177315     -0.517752
O      8.50569     10.43466      3.58206         0.261089     -0.022107      0.008883
O      8.50569     10.54374     17.39634         0.696024     -0.005379     -0.164162
O     12.47271     10.54374      3.58206        -0.832331      0.100252      0.094942
O     12.47271     10.43466     17.39634        -0.449826      0.030363     -0.081789
O      3.58206      8.50569     10.43466         0.158636      1.049751     -0.023162
O     17.39634      8.50569     10.54374        -0.159083      0.563947      0.073011
O      3.58206     12.47271     10.54374         0.098985     -0.413626      0.050521
O     17.39634     12.47271     10.43466        -0.149630     -0.530990     -0.027995
O      3.58206     10.43466      8.50569         0.082065     -0.082844      0.621127
O     17.39634     10.54374      8.50569        -0.074159      0.082782      0.480101
O      3.58206     10.54374     12.47271        -0.004538      0.031386     -0.485703
O     17.39634     10.43466     12.47271        -0.238881     -0.043143     -0.656938
O     10.43466      8.50569      3.58206        -0.037492      0.445223      0.140857
O     10.54374      8.50569     17.39634        -0.005218      0.613911     -0.175505
O     10.54374     12.47271      3.58206         0.042488     -1.034222      0.132032
O     10.43466     12.47271     17.39634         0.046938     -0.765815     -0.197733
O      8.50569      3.58206     10.43466         0.548974      0.156909     -0.058067
O      8.50569     17.39634     10.54374         0.508104     -0.189095      0.008339
O     12.47271      3.58206     10.54374        -0.611613      0.204345      0.000254
O     12.47271     17.39634     10.43466        -0.241935      0.059764     -0.042909
O     11.90042     11.90042     19.56718        -0.252668     -0.293567      0.238194
O     19.56718     19.56718     19.56718         0.318104      0.298472      0.278999
O     19.56718     11.90042     11.90042         0.309307     -0.262429     -0.238119
O     11.90042     19.56718     11.90042        -0.236577      0.301474     -0.319608
O      9.45224      1.03696      9.45224        -0.003284      0.084095     -0.103669
O      1.03696      9.45224      9.45224         0.091059     -0.074615     -0.147034
O      1.03696      1.03696      1.03696         0.108133      0.177544      0.039437
O      9.45224      9.45224      1.03696        -0.098355     -0.107948      0.026183
Zr     10.48920      2.52580     10.48920        -0.113734     -0.258119     -0.003938
Zr     10.48920     18.45260     10.48920        -0.087238      0.192148      0.107645
Zr     10.48920     10.48920      2.52580        -0.113114     -0.419202     -0.235288
Zr     10.48920     10.48920     18.45260        -0.213559     -0.080498      0.369878
Zr      2.52580     10.48920     10.48920        -0.363847      0.240157      0.262322
Zr     18.45260     10.48920     10.48920         0.191006      0.000923     -0.161135
Pd     13.61794      8.93593      9.20778        -0.013299     -0.005813      0.017947
Pd      5.67957      9.82481     10.07190        -0.032137      0.025890      0.009963
Pd      6.76510     11.72778     11.67462         0.005390      0.023824      0.001341
Pd     12.19214     13.08507      7.32753        -0.009418     -0.004298     -0.000458
Pd     12.02002      7.84570      7.31347        -0.025761     -0.010691      0.026523
Pd      8.29145      7.04087      6.58308        -0.001061     -0.009721     -0.011017
Pd     10.89617     11.25632      5.58591        -0.026375     -0.015273      0.012226
Pd     14.56774      8.53159      6.74927        -0.029176      0.004308      0.012016
Pd      9.66258     11.79339      7.99656         0.001824     -0.001488      0.014624
Pd      6.85434      6.79904     12.25881         0.007439      0.003154      0.007069
Pd      6.37789      7.65057      8.26749         0.023033      0.026664     -0.000874
Pd      6.78177      8.63054     14.14522        -0.076613     -0.016272      0.025715
Pd     11.52757      6.51747      9.64838        -0.007848     -0.020262      0.029140
Pd      9.69956      9.29025      6.95492        -0.034972     -0.006290      0.051845
Pd      9.01209     13.96956      9.36993         0.002496      0.009613     -0.015076
Pd      9.67719      7.26405     11.68022        -0.058333      0.020429     -0.001731
Pd     10.51475      8.97192      9.61139         0.015174     -0.007295      0.018923
Pd      9.32462     11.38126     10.59868         0.003129      0.030360      0.012177
Pd      8.86868      7.00981      9.15227         0.015532     -0.007676     -0.014507
Pd      8.64097      6.69289     14.15395        -0.009975      0.016523      0.033329
Pd      7.82757      9.24237     11.69113        -0.040802      0.037704      0.073811
Pd     11.97343     10.48258      7.83546         0.000780     -0.008877     -0.004130
Pd      7.13341     12.04837      9.05493         0.005527     -0.009458     -0.006057
Pd      8.04101      9.57789      8.96391         0.006841     -0.010013      0.100326
Pd     14.07812      6.47277      8.47947        -0.007127      0.000006      0.006685
Pd     12.46354      8.25437     11.51442        -0.005197      0.005708      0.015139
Pd      8.74527     11.45747     13.39724         0.007769      0.051523     -0.004925
Pd     13.91490     11.93040      9.02316         0.002706      0.006991     -0.011189
Pd     12.88519     10.58995     13.08310        -0.001784      0.004153     -0.015462
Pd     14.75828     10.36682     11.13834         0.005715      0.012086     -0.006933
Pd     12.07270     10.76569     10.56662         0.000469      0.022685     -0.012684
Pd     11.45029     13.18254      9.85391         0.006272      0.029687      0.003480
Pd     13.56998     12.84019     11.65848         0.010229      0.009730     -0.002810
Pd     11.05052     12.54103     12.44531         0.014363      0.023182      0.002945
Pd     11.01382     11.27842     14.85068        -0.020418     -0.045504     -0.019395
Pd     10.45597      9.66391     12.46579        -0.009278      0.018336     -0.023543
Pd      9.32824      9.22659     14.74563        -0.079189      0.006813     -0.068862
Pd      8.71265     13.67926     11.99590         0.014563      0.042770     -0.008904
