152
# total energy = -1022.82626477 eVH     10.35389      5.87395      7.64558         0.477583      0.027151      0.906908
H     10.62451     15.10445      7.64558        -0.038494      0.053924      0.767442
H     10.62451      5.87395     13.33282         0.142926      0.114835     -0.603699
H     10.35389     15.10445     13.33282        -0.253955     -0.079852     -0.555615
H      7.64558     10.35389      5.87395         0.330932     -0.037454      0.189873
H      7.64558     10.62451     15.10445         0.615448     -0.189386     -0.146133
H     13.33282     10.62451      5.87395        -0.862353     -0.330120      0.164971
H     13.33282     10.35389     15.10445        -0.446176     -0.074668     -0.071754
H      5.87395      7.64558     10.35389         0.125598      1.126125     -0.153490
H     15.10445      7.64558     10.62451        -0.170929      0.401176     -0.086510
H      5.87395     13.33282     10.62451         0.142462     -0.404528     -0.072190
H     15.10445     13.33282     10.35389        -0.077605     -0.967607     -0.200053
H      5.87395     10.35389      7.64558         0.125531      0.035085      0.477796
H     15.10445     10.62451      7.64558         0.124382     -0.216126      0.801550
H      5.87395     10.62451     13.33282         0.273725     -0.024591     -0.392347
H     15.10445     10.35389     13.33282        -0.158670      0.018688     -0.611005
H     10.35389      7.64558      5.87395         0.067663      0.850926      0.112048
H     10.62451      7.64558     15.10445         0.022203      0.577072     -0.140819
H     10.62451     13.33282      5.87395         0.071569     -0.600738      0.172937
H     10.35389     13.33282     15.10445        -0.249588     -0.894261     -0.111977
H      7.64558      5.87395     10.35389         0.528466      0.039168     -0.138759
H      7.64558     15.10445     10.62451         0.924825     -0.198693      0.310411
H     13.33282      5.87395     10.62451        -0.436096      0.187590     -0.059199
H     13.33282     15.10445     10.35389        -1.029580     -0.094080      0.284453
H     12.45634     12.45634     19.01126         0.267067      0.257011     -0.224753
H     19.01126     19.01126     19.01126        -0.247406     -0.235461     -0.262059
H     19.01126     12.45634     12.45634        -0.240907      0.270309      0.239491
H     12.45634     19.01126     12.45634         0.210252     -0.283503      0.253085
C     10.35284      5.61067      6.59456        -0.122424     -0.436273     -0.416270
C     10.62556     15.36773      6.59456         0.017781      0.351738     -1.149680
C     10.62556      5.61067     14.38384        -0.028339     -0.226396      0.723757
C     10.35284     15.36773     14.38384         0.182873      0.766937      0.144656
C      6.59456     10.35284      5.61067        -0.412765     -0.041552     -0.181857
C      6.59456     10.62556     15.36773        -0.775909      0.151022      0.347250
C     14.38384     10.62556      5.61067         0.631287      0.289198     -0.358675
C     14.38384     10.35284     15.36773         0.716199     -0.118733      0.419604
C      5.61067      6.59456     10.35284        -0.428993     -0.757995      0.272627
C     15.36773      6.59456     10.62556         0.200276     -0.463408      0.047941
C      5.61067     14.38384     10.62556        -0.263123      0.375110     -0.022296
C     15.36773     14.38384     10.35284         0.396219      0.166287      0.215426
C      5.61067     10.35284      6.59456        -0.312752     -0.014594     -0.894031
C     15.36773     10.62556      6.59456         0.576438     -0.156520     -1.233460
C      5.61067     10.62556     14.38384        -0.464887      0.008732      0.922397
C     15.36773     10.35284     14.38384         0.518588     -0.176417      1.250089
C     10.35284      6.59456      5.61067        -0.033755     -0.932050     -0.675394
C     10.62556      6.59456     15.36773         0.048333     -0.693404      0.300146
C     10.62556     14.38384      5.61067         0.041316      1.255545     -0.704333
C     10.35284     14.38384     15.36773         0.106072      0.613172      0.648225
C      6.59456      5.61067     10.35284        -0.223118     -0.900623      0.134133
C      6.59456     15.36773     10.62556        -1.738110      0.497076      0.035294
C     14.38384      5.61067     10.62556         0.580708     -0.227509     -0.008530
C     14.38384     15.36773     10.35284         0.218819      0.548131     -0.233620
C     10.40319      3.19606      7.29314         0.015105      0.900287     -0.249447
C     10.35913      4.25547      6.23373        -0.052288     -0.363999      0.612272
C      0.08601      7.29314      7.29314        -0.008616     -0.236008     -0.464701
C      0.13007      6.23373      6.23373         0.000730      0.124912      0.209100
C      0.08601      3.19606      3.19606        -0.016885      0.636945      0.181904
C      0.13007      4.25547      4.25547        -0.091043     -0.199609     -0.166149
C     10.40319      7.29314      3.19606        -0.002560     -0.684428      0.527200
C     10.35913      6.23373      4.25547        -0.008581      0.510276     -0.393449
C      7.29314     10.40319      3.19606        -0.340896      0.022530      0.862723
C      6.23373     10.35913      4.25547         0.209126      0.010351     -0.144989
C      7.29314      0.08601      7.29314        -0.306125     -0.046575     -0.271705
C      6.23373      0.13007      6.23373         0.266641     -0.057886      0.289883
C      3.19606      0.08601      3.19606         0.422807     -0.051920      1.318263
C      4.25547      0.13007      4.25547        -0.118610     -0.025947     -0.462125
C      3.19606     10.40319      7.29314         0.697975      0.014883     -0.265257
C      4.25547     10.35913      6.23373        -0.131899      0.028363      0.101707
C      3.19606      7.29314     10.40319         0.605023     -1.267401      0.026765
C      4.25547      6.23373     10.35913        -0.733189      0.825998      0.042674
C      7.29314      7.29314      0.08601        -0.649118     -0.169682     -0.022890
C      6.23373      6.23373      0.13007         0.168474      0.275308     -0.009732
C      3.19606      3.19606      0.08601         0.240167      0.250263     -0.019981
C      4.25547      4.25547      0.13007        -0.054119     -0.037338      0.013747
C      7.29314      3.19606     10.40319        -0.372320      0.790386      0.017086
C      6.23373      4.25547     10.35913         0.867898     -0.167976      0.011862
O     10.43466      3.58206      8.50569        -0.049535      0.034568      0.320046
O     10.54374     17.39634      8.50569        -0.022786     -0.182133      0.600402
O     10.54374      3.58206     12.47271         0.055211      0.064160     -0.326325
O     10.43466     17.39634     12.47271        -0.023260     -0.126695     -0.582632
O      8.50569     10.43466      3.58206         0.381219     -0.024732     -0.013920
O      8.50569     10.54374     17.39634         0.469029      0.053620     -0.143274
O     12.47271     10.54374      3.58206        -0.273188      0.051495     -0.082136
O     12.47271     10.43466     17.39634        -0.848797      0.020422     -0.222928
O      3.58206      8.50569     10.43466         0.039796      0.914777      0.041974
O     17.39634      8.50569     10.54374        -0.041384      0.340754      0.077955
O      3.58206     12.47271     10.54374         0.065467     -0.420493      0.063912
O     17.39634     12.47271     10.43466        -0.169799     -0.775601      0.018051
O      3.58206     10.43466      8.50569        -0.053856     -0.065205      0.230939
O     17.39634     10.54374      8.50569        -0.137013      0.043084      0.459330
O      3.58206     10.54374     12.47271        -0.025090     -0.052323     -0.896774
O     17.39634     10.43466     12.47271        -0.197847      0.043865     -0.768295
O     10.43466      8.50569      3.58206         0.042850      0.676296      0.190179
O     10.54374      8.50569     17.39634         0.052871      0.432362     -0.080919
O     10.54374     12.47271      3.58206        -0.007361     -0.724141      0.226053
O     10.43466     12.47271     17.39634         0.047038     -0.844202     -0.273609
O      8.50569      3.58206     10.43466         0.492739      0.076790     -0.038926
O      8.50569     17.39634     10.54374         0.648300     -0.248587     -0.059050
O     12.47271      3.58206     10.54374        -0.485860      0.163742      0.039911
O     12.47271     17.39634     10.43466        -0.530944     -0.038420     -0.030724
O     11.90042     11.90042     19.56718        -0.304708     -0.312451      0.265322
O     19.56718     19.56718     19.56718         0.286940      0.272662      0.320936
O     19.56718     11.90042     11.90042         0.279548     -0.330866     -0.245321
O     11.90042     19.56718     11.90042        -0.226511      0.291149     -0.240410
O      9.45224      1.03696      9.45224        -0.074616      0.047962     -0.066641
O      1.03696      9.45224      9.45224         0.057700     -0.142468     -0.055541
O      1.03696      1.03696      1.03696         0.046192      0.030910      0.185964
O      9.45224      9.45224      1.03696        -0.040231     -0.091090      0.122369
Zr     10.48920      2.52580     10.48920        -0.007184     -0.072428     -0.022430
Zr     10.48920     18.45260     10.48920         0.052964      0.301818     -0.075480
Zr     10.48920     10.48920      2.52580        -0.105079      0.016183     -0.366776
Zr     10.48920     10.48920     18.45260        -0.130699     -0.156211      0.322816
Zr      2.52580     10.48920     10.48920        -0.347583      0.319123     -0.475012
Zr     18.45260     10.48920     10.48920         0.244087      0.036356     -0.262891
Pd      9.04761     10.26504     13.32577        -0.012689     -0.015163      0.003545
Pd     10.58429      9.73105     10.99876        -0.009268     -0.013621     -0.037847
Pd     13.76446      8.53654     12.69317         0.004242      0.001507     -0.005282
Pd     11.00189     11.08066     15.01636         0.000108     -0.014014     -0.006520
Pd     12.84034     11.17109     13.00197         0.021833      0.002286      0.008371
Pd     14.98044     10.93013     11.34973         0.014546      0.009559     -0.008314
Pd      6.64993      7.42666     12.34180         0.001391      0.020010      0.001011
Pd      9.22777      7.25647     10.13409         0.004585      0.013103     -0.027233
Pd      9.26091      7.60865     12.80579         0.010360     -0.007810     -0.022062
Pd     11.69691      7.28638     11.47186         0.005235      0.002697     -0.009637
Pd     11.39198      7.99576      8.87069         0.029523     -0.003257     -0.011936
Pd      7.25928     11.83469     11.96109         0.003081      0.001419     -0.009948
Pd      8.88053     14.66843      9.32332         0.031021      0.003142      0.009084
Pd      8.41917     12.65723     14.32258        -0.003158     -0.008162     -0.002430
Pd     13.48347     14.08184      8.58768         0.072913      0.027599     -0.044390
Pd     10.94723     13.32013      8.49702         0.057180      0.028023      0.032670
Pd     14.09451     11.51272      8.93327         0.005454      0.027383     -0.003297
Pd      8.61407     14.11095     12.10299         0.007939     -0.007818     -0.000757
Pd     12.24495     13.72659     14.02484        -0.005418     -0.012841      0.003920
Pd     11.13678     14.44404     11.12536         0.026632     -0.012524      0.037108
Pd     14.06328     13.54212     12.17614        -0.012342      0.012727     -0.006507
Pd     12.30848     12.17044     10.66374        -0.000341     -0.027549      0.005633
Pd     12.66756     12.31755      6.72745         0.015623      0.034261     -0.017743
Pd     13.65113      8.93793      7.92806         0.037487      0.004295      0.008482
Pd      6.86082      8.45949      8.85323         0.010153      0.010613     -0.007060
Pd      5.52642      9.92395     11.28656        -0.002792      0.025637     -0.045640
Pd      9.13906      9.75606      8.32296         0.032859     -0.013995     -0.013941
Pd      8.82966      7.24861      7.47274        -0.012278     -0.001269     -0.031120
Pd      9.51496     12.08269     10.42267         0.016190      0.003458     -0.009394
Pd     11.53380     10.70479      8.58592         0.020734      0.008190     -0.035125
Pd     11.22842      9.24206      6.44934         0.042616     -0.024728     -0.010838
Pd      9.89897     11.56169      6.39104         0.027176     -0.027348     -0.014981
Ir     11.35229      9.09337     13.37561        -0.002146      0.016845     -0.036332
Ir     13.06998      9.47956     10.40378         0.013960      0.014359     -0.002785
Ir     10.53190     12.36858     12.70174        -0.000588     -0.020018      0.015509
Ir      7.12179     10.97507      9.51701         0.034653      0.009606     -0.018576
Ir      8.37510     12.44750      8.18642         0.067909      0.023811     -0.018971
Ir      8.06272      9.29440     11.11741         0.009691     -0.001662     -0.001576
