152
# total energy = -1110.35915988 eVH     10.35389      5.87395      7.64558        -0.340487     -0.161573      1.025837
H     10.62451     15.10445      7.64558         0.383970      0.090853      0.944174
H     10.62451      5.87395     13.33282        -0.304622     -0.719821     -1.416592
H     10.35389     15.10445     13.33282        -0.642362      0.374081     -0.319890
H      7.64558     10.35389      5.87395         0.544055     -0.542573     -0.081273
H      7.64558     10.62451     15.10445         0.354486     -0.242533      0.038771
H     13.33282     10.62451      5.87395        -0.519490      0.607421     -0.013744
H     13.33282     10.35389     15.10445        -0.532088      0.417232      0.163713
H      5.87395      7.64558     10.35389         0.140291      0.492026      0.034768
H     15.10445      7.64558     10.62451         0.429415      0.838929      0.249327
H      5.87395     13.33282     10.62451        -0.230207     -0.441033      0.364036
H     15.10445     13.33282     10.35389         0.031398     -0.311363     -0.391939
H      5.87395     10.35389      7.64558        -0.071252     -0.348519      1.443408
H     15.10445     10.62451      7.64558         0.199450      0.402001      1.250406
H      5.87395     10.62451     13.33282        -0.141547     -0.335191     -1.121203
H     15.10445     10.35389     13.33282         0.532361      0.876769     -1.514097
H     10.35389      7.64558      5.87395        -0.529311      0.494631     -0.198309
H     10.62451      7.64558     15.10445        -0.135607      0.553510      0.201591
H     10.62451     13.33282      5.87395         0.908709     -1.407822     -0.332202
H     10.35389     13.33282     15.10445         0.291152     -0.545349     -0.070384
H      7.64558      5.87395     10.35389         0.725033      0.173601     -0.139430
H      7.64558     15.10445     10.62451         1.969348      0.823843      0.183336
H     13.33282      5.87395     10.62451        -2.689779     -0.998579     -0.415658
H     13.33282     15.10445     10.35389        -0.870199     -0.041144     -0.254078
H     12.45634     12.45634     19.01126         0.271822      0.257797     -0.227545
H     19.01126     19.01126     19.01126        -0.266714     -0.254552     -0.238042
H     19.01126     12.45634     12.45634        -0.282713      0.281097      0.187082
H     12.45634     19.01126     12.45634         0.256076     -0.251936      0.235799
C     10.35284      5.61067      6.59456         0.100383     -0.498504     -1.256722
C     10.62556     15.36773      6.59456         0.163127      0.770857     -0.858626
C     10.62556      5.61067     14.38384         0.170197     -0.325045      1.822777
C     10.35284     15.36773     14.38384         0.122947      0.401783      1.814002
C      6.59456     10.35284      5.61067        -1.117280     -0.111391     -0.844743
C      6.59456     10.62556     15.36773        -0.674633     -0.107993      0.726819
C     14.38384     10.62556      5.61067         0.888247     -0.115319     -0.999281
C     14.38384     10.35284     15.36773         1.207791      0.164861      1.104064
C      5.61067      6.59456     10.35284        -0.691084     -0.796570     -0.161081
C     15.36773      6.59456     10.62556         1.941291     -0.185547     -0.176498
C      5.61067     14.38384     10.62556        -1.574037     -0.004543     -0.111005
C     15.36773     14.38384     10.35284         0.486787      0.046983      0.032782
C      5.61067     10.35284      6.59456        -0.270470      0.205973     -1.364701
C     15.36773     10.62556      6.59456         0.272382     -0.192720     -0.999747
C      5.61067     10.62556     14.38384        -0.280135      0.376495      1.411470
C     15.36773     10.35284     14.38384         0.073667     -0.427958      1.902726
C     10.35284      6.59456      5.61067        -0.202823     -0.929081     -0.693777
C     10.62556      6.59456     15.36773        -0.096049     -0.818020      1.043371
C     10.62556     14.38384      5.61067        -0.483238      2.055041     -0.784819
C     10.35284     14.38384     15.36773        -0.297473      1.483135      0.466095
C      6.59456      5.61067     10.35284        -0.958899     -0.412317      0.076209
C      6.59456     15.36773     10.62556        -1.349430      0.340341     -0.334873
C     14.38384      5.61067     10.62556         1.301235     -1.122162      0.145456
C     14.38384     15.36773     10.35284         0.400206      0.317117      0.055447
C     10.40319      3.19606      7.29314         0.003206      0.312090     -0.097051
C     10.35913      4.25547      6.23373         0.136594     -0.504296      0.031050
C      0.08601      7.29314      7.29314        -0.054220     -0.310098     -0.432192
C      0.13007      6.23373      6.23373        -0.127328      0.726607      0.046213
C      0.08601      3.19606      3.19606        -0.110285      1.622349      0.174351
C      0.13007      4.25547      4.25547        -0.087717     -0.410472     -1.251419
C     10.40319      7.29314      3.19606         0.016890     -0.422595      0.131954
C     10.35913      6.23373      4.25547         0.259774      0.077591     -0.484035
C      7.29314     10.40319      3.19606        -1.662343      0.005100      0.327451
C      6.23373     10.35913      4.25547         0.652627      0.077832     -0.611597
C      7.29314      0.08601      7.29314        -0.397179     -0.008924     -0.294867
C      6.23373      0.13007      6.23373         0.620297     -0.052597      0.277199
C      3.19606      0.08601      3.19606         0.662617     -0.014997      0.190547
C      4.25547      0.13007      4.25547        -0.376382     -0.059931     -0.483735
C      3.19606     10.40319      7.29314         0.383420      0.018284     -0.321206
C      4.25547     10.35913      6.23373        -0.728789      0.058115      0.376709
C      3.19606      7.29314     10.40319         0.307383     -0.220590     -0.005965
C      4.25547      6.23373     10.35913         0.055212      0.649052      0.094250
C      7.29314      7.29314      0.08601        -0.718895     -0.592662     -0.015040
C      6.23373      6.23373      0.13007         0.794841      1.151031     -0.078777
C      3.19606      3.19606      0.08601         0.805694      0.485724      0.013854
C      4.25547      4.25547      0.13007        -0.330229     -1.702521     -0.117094
C      7.29314      3.19606     10.40319        -0.333982      0.279673     -0.003231
C      6.23373      4.25547     10.35913         0.522772     -0.038933      0.229144
O     10.43466      3.58206      8.50569        -0.047114      0.180387      0.257724
O     10.54374     17.39634      8.50569         0.041104     -0.231015      0.485515
O     10.54374      3.58206     12.47271         0.085943     -0.056399     -0.044462
O     10.43466     17.39634     12.47271        -0.022976     -0.139394     -0.281614
O      8.50569     10.43466      3.58206         0.984066      0.181668      0.390842
O      8.50569     10.54374     17.39634         0.564500      0.083517     -0.226371
O     12.47271     10.54374      3.58206        -0.431603     -0.037898      0.189622
O     12.47271     10.43466     17.39634        -0.527683     -0.070970     -0.200909
O      3.58206      8.50569     10.43466         0.178217      0.442078     -0.031323
O     17.39634      8.50569     10.54374        -0.227638      0.714795      0.041498
O      3.58206     12.47271     10.54374         0.158443     -0.663370      0.023877
O     17.39634     12.47271     10.43466        -0.185321     -0.485376     -0.013527
O      3.58206     10.43466      8.50569         0.219905     -0.058847      0.400373
O     17.39634     10.54374      8.50569        -0.169086      0.036559      0.409533
O      3.58206     10.54374     12.47271         0.142474      0.020816     -0.309109
O     17.39634     10.43466     12.47271         0.066105     -0.050389     -0.090339
O     10.43466      8.50569      3.58206        -0.002354      0.277353      0.177772
O     10.54374      8.50569     17.39634         0.071137      0.441101     -0.183818
O     10.54374     12.47271      3.58206        -0.222649     -0.965494      0.348331
O     10.43466     12.47271     17.39634        -0.085341     -0.448520     -0.244477
O      8.50569      3.58206     10.43466         0.499674      0.195071     -0.013674
O      8.50569     17.39634     10.54374         0.656123     -0.192201      0.023017
O     12.47271      3.58206     10.54374        -0.734412      0.277660      0.036624
O     12.47271     17.39634     10.43466        -0.445111     -0.198307     -0.044470
O     11.90042     11.90042     19.56718        -0.344864     -0.307354      0.258434
O     19.56718     19.56718     19.56718         0.326059      0.310574      0.281149
O     19.56718     11.90042     11.90042         0.278825     -0.278756     -0.141433
O     11.90042     19.56718     11.90042        -0.307534      0.288687     -0.234061
O      9.45224      1.03696      9.45224        -0.056563      0.070559     -0.049044
O      1.03696      9.45224      9.45224         0.035066     -0.072332     -0.073706
O      1.03696      1.03696      1.03696         0.056575      0.137533      0.105788
O      9.45224      9.45224      1.03696        -0.130068     -0.088200      0.105327
Zr     10.48920      2.52580     10.48920         0.141233     -0.162640     -0.160534
Zr     10.48920     18.45260     10.48920        -0.090617      0.178415     -0.039972
Zr     10.48920     10.48920      2.52580         0.325659     -0.310647     -0.198064
Zr     10.48920     10.48920     18.45260         0.001534     -0.083214      0.210809
Zr      2.52580     10.48920     10.48920        -0.063373      0.160876     -0.050416
Zr     18.45260     10.48920     10.48920         0.134628     -0.120683     -0.246362
Ir     12.06198     12.49089     10.46389        -0.025733      0.010924      0.013073
Ir     11.14278      7.41757     10.33452         0.030427     -0.001204     -0.010852
Ir      8.79057      7.40369     11.59519         0.031379     -0.021790     -0.012936
Ir      7.48487     11.66953      7.65046        -0.004893     -0.017708      0.003634
Ir     11.59606     12.09722      7.12546         0.012735      0.016663      0.015482
Ir     13.72960      8.96996      7.57069         0.031100      0.020640     -0.031445
Ir     12.50968     13.95353      8.42221        -0.013873     -0.009610     -0.004095
Ir      9.71529     11.26850      5.57268        -0.014703      0.004922     -0.011722
Ir      9.08730     13.47370      7.07444         0.006720      0.012165     -0.008371
Ir      9.29319      9.66308      7.54141        -0.008466      0.002772     -0.008278
Ir     13.24485      7.04482     11.94904         0.026643     -0.016114      0.007075
Ir     13.52505      7.02219      9.12341         0.050347     -0.008177      0.012200
Ir     11.00604      7.61187     12.87330         0.009765     -0.005954     -0.012548
Ir     13.61783     11.55521      8.75899         0.000337      0.012781     -0.012167
Ir     11.50557      9.66706      6.24103         0.002209     -0.023928     -0.003468
Ir      7.13802      9.21483      8.95144        -0.000741     -0.023667     -0.009592
Ir     14.05610     11.41439     11.66830         0.015505      0.007139     -0.007288
Ir     11.64873      9.87843      8.91104        -0.027592      0.012487     -0.005674
Ir      9.41965      9.54013     10.25990         0.022033      0.014945     -0.000076
Ir     13.85019      9.38741     10.19452         0.018122      0.004845      0.004066
Ir     13.79816      9.14936     12.92464         0.008939      0.003559     -0.012019
Ir     11.67858      9.76602     11.58224        -0.013546      0.005802     -0.015438
Ir      9.91287     11.76963      8.98163         0.008357     -0.042298      0.010615
Ir      9.01235      7.44652      8.86441         0.037380     -0.025776     -0.031974
Ir     11.47855      7.60526      7.80678         0.034964     -0.027926     -0.031168
Ir      9.23820      9.51805     13.02593         0.008545     -0.005796     -0.010765
Ir      7.53472     13.93640      8.98679        -0.014750     -0.004975      0.013233
Ir     10.91689     14.13853     11.94322        -0.002526     -0.041555     -0.011385
Ir     10.13127     14.18527      9.51994         0.003826     -0.005593      0.017094
Ir      9.80400     11.71941     11.72869        -0.003118     -0.021615     -0.002397
Ir      7.59031     11.61762     10.20852         0.000157     -0.025811      0.015569
Ir      8.38372     13.78424     11.58476        -0.011073     -0.015675      0.002430
Ir      7.52970     11.62544     12.83127         0.001936     -0.029837     -0.002449
Ir      9.76239     11.65116     14.34565         0.003889     -0.016634     -0.008462
Ir     13.50968     13.87443     12.19538        -0.014610     -0.002816     -0.002972
Ir     11.99675     12.06660     13.09054        -0.006136      0.005977     -0.012484
Ir     11.56342      9.83041     14.21736        -0.000179     -0.011939     -0.001821
Ir      7.13074      9.43012     11.51022         0.015786     -0.026921     -0.000897
