13
# total energy = -105.61513144 eVC      1.26327      6.81232      0.00000         0.001150      0.012385     -0.000000
C      3.78401      6.81232      0.00000        -0.001150      0.012385      0.000000
C      3.78401      1.42019      0.00000        -0.001150     -0.012385      0.000000
C      1.26327      1.42019     -0.00000         0.001150     -0.012385      0.000000
C     -0.00000      7.52470      0.00000         0.000000      0.015036      0.000000
C     -0.00000      0.70781      0.00000         0.000000     -0.015036      0.000000
C      2.52364      7.52049      0.00000         0.000000      0.030598      0.000000
C      2.52364      0.71202     -0.00000        -0.000000     -0.030598     -0.000000
O      1.20186      2.72049     -0.00000        -0.003910      0.002126      0.000000
O      3.84542      2.72049      0.00000         0.003910      0.002126      0.000000
O      3.84542      5.51202      0.00000         0.003910     -0.002126      0.000000
O      1.20186      5.51202     -0.00000        -0.003910     -0.002126      0.000000
Ir      2.52364      4.11625      0.00000         0.000000     -0.000000      0.000000
