152
# total energy = -1004.29638909 eVH     10.35389      5.87395      7.64558        -0.158636      0.214532      0.654168
H     10.62451     15.10445      7.64558        -0.266997     -0.134236      0.673006
H     10.62451      5.87395     13.33282         0.472392      0.033414     -0.988230
H     10.35389     15.10445     13.33282         0.064901     -0.189640     -0.540227
H      7.64558     10.35389      5.87395         0.409603      0.067141      0.114397
H      7.64558     10.62451     15.10445         0.775928      0.576110     -0.032718
H     13.33282     10.62451      5.87395        -0.449831     -0.015263      0.267911
H     13.33282     10.35389     15.10445        -0.744202     -0.193334      0.016547
H      5.87395      7.64558     10.35389         0.089851      1.908051      0.182470
H     15.10445      7.64558     10.62451        -0.093589      0.507888      0.194614
H      5.87395     13.33282     10.62451         0.211429     -0.691971      0.003001
H     15.10445     13.33282     10.35389         0.228730     -1.466756     -0.367031
H      5.87395     10.35389      7.64558         0.087915      0.061589      0.576240
H     15.10445     10.62451      7.64558        -0.175235      0.919182      1.372359
H      5.87395     10.62451     13.33282        -0.058376      0.456098     -1.304415
H     15.10445     10.35389     13.33282         0.139122     -0.181883     -0.773302
H     10.35389      7.64558      5.87395         0.290202      1.360739      0.158910
H     10.62451      7.64558     15.10445         0.553208      0.807725     -0.079416
H     10.62451     13.33282      5.87395        -0.597736     -0.829286      0.195200
H     10.35389     13.33282     15.10445        -0.169181     -0.534231     -0.311413
H      7.64558      5.87395     10.35389         1.140628     -0.249351     -0.104287
H      7.64558     15.10445     10.62451         0.764469     -0.207374     -0.025744
H     13.33282      5.87395     10.62451        -0.619302      0.117263      0.653824
H     13.33282     15.10445     10.35389        -0.412735     -0.027181     -0.152573
H     12.45634     12.45634     19.01126         0.273822      0.243966     -0.234086
H     19.01126     19.01126     19.01126        -0.266386     -0.272503     -0.215062
H     19.01126     12.45634     12.45634        -0.274807      0.252773      0.232708
H     12.45634     19.01126     12.45634         0.253473     -0.281212      0.229146
C     10.35284      5.61067      6.59456        -0.144276     -0.821281     -0.543982
C     10.62556     15.36773      6.59456         0.091115      0.366184     -0.235853
C     10.62556      5.61067     14.38384        -0.083263     -0.583160      0.677770
C     10.35284     15.36773     14.38384        -0.009823      0.247344      0.535430
C      6.59456     10.35284      5.61067        -0.650057      0.084666     -0.451098
C      6.59456     10.62556     15.36773        -1.015379      0.229211      0.728576
C     14.38384     10.62556      5.61067         0.798104      0.031279     -0.921924
C     14.38384     10.35284     15.36773         0.936182     -0.108411      0.454177
C      5.61067      6.59456     10.35284        -0.879990     -1.067727     -0.447899
C     15.36773      6.59456     10.62556         0.682816      0.066542     -0.260569
C      5.61067     14.38384     10.62556        -0.222552      0.795587      0.008868
C     15.36773     14.38384     10.35284         0.292210      1.430610     -0.021793
C      5.61067     10.35284      6.59456        -0.277700      0.015879     -0.746084
C     15.36773     10.62556      6.59456         0.400918     -0.359340     -0.978016
C      5.61067     10.62556     14.38384        -0.345180     -0.002655      1.110957
C     15.36773     10.35284     14.38384         0.379988     -0.049225      0.873343
C     10.35284      6.59456      5.61067        -0.033103     -1.028240     -0.371027
C     10.62556      6.59456     15.36773         0.063606     -0.696127      0.555296
C     10.62556     14.38384      5.61067         0.128974      0.993158     -0.429251
C     10.35284     14.38384     15.36773        -0.020585      0.873011      0.447352
C      6.59456      5.61067     10.35284        -0.678068     -1.288685      0.113692
C      6.59456     15.36773     10.62556        -0.865861      0.160644      0.100179
C     14.38384      5.61067     10.62556        -0.068684     -0.524981     -0.346577
C     14.38384     15.36773     10.35284         0.127346      0.666660     -0.070019
C     10.40319      3.19606      7.29314         0.007328      0.700215     -0.764509
C     10.35913      4.25547      6.23373         0.010956     -0.541794      0.105509
C      0.08601      7.29314      7.29314        -0.020348     -1.011104     -0.261023
C      0.13007      6.23373      6.23373        -0.048643      0.405237      0.404361
C      0.08601      3.19606      3.19606         0.044042      1.178347      0.216304
C      0.13007      4.25547      4.25547        -0.004926     -0.412505     -0.452936
C     10.40319      7.29314      3.19606        -0.009723     -0.567440      0.216108
C     10.35913      6.23373      4.25547        -0.019045      0.126078     -0.697580
C      7.29314     10.40319      3.19606        -0.395960      0.021996      0.269881
C      6.23373     10.35913      4.25547         0.215815      0.071306     -0.103313
C      7.29314      0.08601      7.29314        -1.162206     -0.079860     -0.367112
C      6.23373      0.13007      6.23373         0.643801     -0.188492      0.357077
C      3.19606      0.08601      3.19606         1.166015     -0.017130      0.296396
C      4.25547      0.13007      4.25547        -0.570432     -0.156444     -0.222082
C      3.19606     10.40319      7.29314         0.549593      0.031627     -0.252616
C      4.25547     10.35913      6.23373        -0.221646      0.079912      0.207228
C      3.19606      7.29314     10.40319         0.306618     -0.572271      0.042544
C      4.25547      6.23373     10.35913        -1.043371      0.028050      0.174511
C      7.29314      7.29314      0.08601        -0.492375     -0.447576     -0.024187
C      6.23373      6.23373      0.13007         0.502387      0.303631      0.037612
C      3.19606      3.19606      0.08601         0.647349      0.441631     -0.024946
C      4.25547      4.25547      0.13007        -0.113012     -0.772877     -0.111829
C      7.29314      3.19606     10.40319        -0.410553      0.471890      0.050877
C      6.23373      4.25547     10.35913         0.602863     -0.735482      0.191631
O     10.43466      3.58206      8.50569         0.055671      0.186828      0.649984
O     10.54374     17.39634      8.50569         0.048998     -0.033739      0.308765
O     10.54374      3.58206     12.47271         0.004090     -0.048485     -0.220821
O     10.43466     17.39634     12.47271        -0.036145     -0.110593     -0.396799
O      8.50569     10.43466      3.58206         0.545343     -0.042786      0.136775
O      8.50569     10.54374     17.39634         0.860898     -0.082942     -0.167980
O     12.47271     10.54374      3.58206        -0.876368      0.138287      0.134143
O     12.47271     10.43466     17.39634        -0.621177      0.033602     -0.178259
O      3.58206      8.50569     10.43466         0.174571      0.673308     -0.026873
O     17.39634      8.50569     10.54374        -0.137443      0.635077      0.021430
O      3.58206     12.47271     10.54374         0.101238     -0.543963      0.056356
O     17.39634     12.47271     10.43466        -0.171869     -0.573001     -0.054600
O      3.58206     10.43466      8.50569         0.087695     -0.040425      0.389141
O     17.39634     10.54374      8.50569         0.054011      0.101196      0.330446
O      3.58206     10.54374     12.47271        -0.020079      0.033906     -0.241285
O     17.39634     10.43466     12.47271        -0.124470     -0.028878     -0.447805
O     10.43466      8.50569      3.58206        -0.036904      0.625393      0.179258
O     10.54374      8.50569     17.39634        -0.092932      0.813435     -0.175667
O     10.54374     12.47271      3.58206         0.113657     -0.950599      0.172081
O     10.43466     12.47271     17.39634         0.029718     -0.546906     -0.091149
O      8.50569      3.58206     10.43466         0.582965      0.152457     -0.052212
O      8.50569     17.39634     10.54374         0.598023     -0.166190      0.014300
O     12.47271      3.58206     10.54374        -0.747751      0.134868      0.008378
O     12.47271     17.39634     10.43466        -0.505779     -0.124262     -0.031488
O     11.90042     11.90042     19.56718        -0.327077     -0.265791      0.243892
O     19.56718     19.56718     19.56718         0.296971      0.325518      0.206576
O     19.56718     11.90042     11.90042         0.346176     -0.277855     -0.252447
O     11.90042     19.56718     11.90042        -0.280060      0.352593     -0.229565
O      9.45224      1.03696      9.45224        -0.028133      0.101995     -0.133679
O      1.03696      9.45224      9.45224         0.058687     -0.019696     -0.120893
O      1.03696      1.03696      1.03696         0.063659      0.101039      0.095635
O      9.45224      9.45224      1.03696        -0.038853     -0.027058      0.086855
Zr     10.48920      2.52580     10.48920        -0.091316     -0.252160      0.163347
Zr     10.48920     18.45260     10.48920         0.026038      0.055858      0.096795
Zr     10.48920     10.48920      2.52580        -0.322554     -0.271425     -0.384842
Zr     10.48920     10.48920     18.45260         0.188328     -0.022094      0.387966
Zr      2.52580     10.48920     10.48920        -0.138748     -0.044916     -0.069937
Zr     18.45260     10.48920     10.48920         0.117142     -0.050587      0.144711
Pd     12.71966      8.31573      9.75082         0.039921     -0.012297      0.021482
Pd      6.69005      9.60429     10.46918         0.016080     -0.002679     -0.019017
Pd      6.92047     11.77555     11.90602        -0.002374     -0.033441     -0.015943
Pd     12.25645     13.48935      7.24447         0.003318     -0.008791      0.015806
Pd     12.07567      7.91822      7.13455         0.007109     -0.018938      0.004534
Pd      8.51793      7.32494      6.92061        -0.028555      0.011026      0.002087
Pd     11.48193     11.45372      5.66839         0.008436      0.032598     -0.011565
Pd     14.47696      8.88161      7.81833         0.004665     -0.008604      0.012184
Pd      9.83425     11.79812      7.89323        -0.014326     -0.008111      0.024403
Pd      7.08226      7.17676     11.96716        -0.008137     -0.041458      0.016202
Pd      6.46473      7.60310      8.50171        -0.010345      0.018273      0.013130
Pd      7.33900      9.26831     13.44168        -0.011978      0.019806      0.009601
Pd     11.42464      6.07974      9.22049        -0.050226      0.023123     -0.026327
Pd      9.92148      9.56079      6.38002         0.009481      0.002258     -0.012562
Pd      9.12217     13.97348      9.34193         0.000247     -0.008473      0.002253
Pd     10.94834      7.21220     11.53807        -0.069516      0.055666     -0.018411
Pd     10.33097      9.07970      9.04541         0.034259      0.012998      0.026798
Pd      9.32248     11.51106     10.50289         0.013071      0.007224     -0.007757
Pd      8.92386      7.04158      9.60158        -0.009942      0.006899      0.018368
Pd      9.09194      7.29274     13.62597        -0.010560      0.024051     -0.005848
Pd      9.06212      9.07322     11.41571        -0.029108      0.038869     -0.007099
Pd     12.28088     10.60665      8.06997         0.037388     -0.002692      0.001499
Pd      7.11406     12.04998      9.18482        -0.007885     -0.010928      0.004494
Pd      8.03346      9.75876      8.22467         0.008560     -0.033650      0.012727
Pd     14.03948      6.35721      8.50461        -0.005530      0.009281     -0.027953
Pd     13.31903      8.40799     12.27383         0.046606     -0.029465      0.003800
Pd      9.15734     11.33720     13.22142        -0.038151      0.010711     -0.006255
Pd     14.03861     12.41209      8.81786        -0.010408     -0.032632      0.015228
Pd     13.17663     10.98540     13.05023        -0.020007      0.013877      0.001099
Pd     14.34531     10.32537     10.46684         0.013871     -0.024034      0.024776
Pd     11.72646     10.53970     10.84469         0.014629     -0.015738     -0.037905
Pd     11.54410     13.01979      9.73176         0.024699      0.019105     -0.007422
Pd     13.67671     12.94765     11.49352        -0.002788     -0.003965     -0.028303
Pd     11.21131     12.73840     12.35428        -0.002534      0.005607     -0.010735
Pd     11.27608     11.52119     14.82838         0.001029     -0.010843      0.021849
Pd     11.03920      9.36195     13.18843        -0.022652      0.007602     -0.015869
Pd      9.44273      9.56159     15.28690         0.055344      0.003030     -0.003024
Pd      8.81786     13.76073     12.00818         0.000163      0.003579     -0.006312
