152
# total energy = -1060.16236830 eVH     10.35389      5.87395      7.64558        -0.312539      0.101860      1.085101
H     10.62451     15.10445      7.64558         0.090324     -0.070361      0.892624
H     10.62451      5.87395     13.33282        -0.272078      0.073502     -0.783977
H     10.35389     15.10445     13.33282         0.097051     -0.302187     -0.822664
H      7.64558     10.35389      5.87395         0.895117     -0.204524      0.206968
H      7.64558     10.62451     15.10445         0.314377     -0.026799     -0.062712
H     13.33282     10.62451      5.87395        -0.886046      0.219603      0.220697
H     13.33282     10.35389     15.10445        -0.283030     -0.030350     -0.059166
H      5.87395      7.64558     10.35389         0.092881      0.422229     -0.010057
H     15.10445      7.64558     10.62451        -0.044898      0.437751     -0.028974
H      5.87395     13.33282     10.62451        -0.016000     -0.969001      0.079206
H     15.10445     13.33282     10.35389        -0.087629     -0.329260      0.001709
H      5.87395     10.35389      7.64558         0.317984      0.062019      0.371554
H     15.10445     10.62451      7.64558        -0.119113     -0.157627      0.668427
H      5.87395     10.62451     13.33282        -0.063514      0.451519     -0.603889
H     15.10445     10.35389     13.33282         0.227593     -0.633560     -0.883639
H     10.35389      7.64558      5.87395        -0.019789      0.499422      0.345083
H     10.62451      7.64558     15.10445         0.328244      0.786561     -0.008680
H     10.62451     13.33282      5.87395         0.149819     -0.569188      0.203033
H     10.35389     13.33282     15.10445         0.033026     -0.290303     -0.165153
H      7.64558      5.87395     10.35389         0.369891      0.113881      0.063426
H      7.64558     15.10445     10.62451         0.389394     -0.127826      0.179399
H     13.33282      5.87395     10.62451        -0.307131      0.137548     -0.014267
H     13.33282     15.10445     10.35389        -0.657853     -0.108890      0.138089
H     12.45634     12.45634     19.01126         0.259157      0.272496     -0.225813
H     19.01126     19.01126     19.01126        -0.248345     -0.267151     -0.243998
H     19.01126     12.45634     12.45634        -0.249009      0.271669      0.236944
H     12.45634     19.01126     12.45634         0.290000     -0.234949      0.235626
C     10.35284      5.61067      6.59456         0.400618     -0.416872     -1.356318
C     10.62556     15.36773      6.59456        -0.172054      0.609399     -0.660257
C     10.62556      5.61067     14.38384         0.365929     -0.273337      0.780450
C     10.35284     15.36773     14.38384        -0.205802      0.224845      1.027681
C      6.59456     10.35284      5.61067        -1.395274      0.032373     -0.226943
C      6.59456     10.62556     15.36773        -0.663785      0.065280      0.356541
C     14.38384     10.62556      5.61067         1.312605     -0.186907     -0.630459
C     14.38384     10.35284     15.36773         0.318365     -0.133541      0.355766
C      5.61067      6.59456     10.35284        -0.273827     -0.671996     -0.030724
C     15.36773      6.59456     10.62556         0.409446     -0.854811      0.027753
C      5.61067     14.38384     10.62556        -0.149189      1.194134     -0.217261
C     15.36773     14.38384     10.35284         0.501578      0.707873     -0.037289
C      5.61067     10.35284      6.59456        -0.370584     -0.102714     -0.773687
C     15.36773     10.62556      6.59456         0.400601      0.107417     -0.676031
C      5.61067     10.62556     14.38384        -0.404395     -0.162545      1.219914
C     15.36773     10.35284     14.38384         0.227199      0.227195      1.411792
C     10.35284      6.59456      5.61067        -0.069485     -0.745254     -0.544440
C     10.62556      6.59456     15.36773        -0.140890     -0.978503      0.375786
C     10.62556     14.38384      5.61067        -0.494821      0.385756     -0.737967
C     10.35284     14.38384     15.36773        -0.173710      0.731386      0.491827
C      6.59456      5.61067     10.35284        -0.562073     -0.336892      0.003718
C      6.59456     15.36773     10.62556        -0.363554      0.445024      0.066123
C     14.38384      5.61067     10.62556         0.434879     -0.310507      0.007827
C     14.38384     15.36773     10.35284         1.129034      0.483077     -0.079916
C     10.40319      3.19606      7.29314        -0.008281      0.794812     -0.339039
C     10.35913      4.25547      6.23373         0.024360     -0.377907      0.292868
C      0.08601      7.29314      7.29314        -0.018356     -0.383356     -0.504244
C      0.13007      6.23373      6.23373        -0.047501      0.875758      0.093044
C      0.08601      3.19606      3.19606        -0.006954      0.696389      0.259938
C      0.13007      4.25547      4.25547         0.047067     -0.267246     -0.548094
C     10.40319      7.29314      3.19606        -0.063898     -1.113773      0.626529
C     10.35913      6.23373      4.25547        -0.047514      0.348010     -0.204223
C      7.29314     10.40319      3.19606        -1.092963     -0.054642      0.202641
C      6.23373     10.35913      4.25547         0.380648      0.102079     -0.524709
C      7.29314      0.08601      7.29314        -0.486327      0.028764     -0.435709
C      6.23373      0.13007      6.23373         0.179441      0.121106      0.119554
C      3.19606      0.08601      3.19606         0.702448      0.022911      0.170292
C      4.25547      0.13007      4.25547        -0.173377     -0.051167     -0.365898
C      3.19606     10.40319      7.29314         0.377713     -0.027015     -0.952242
C      4.25547     10.35913      6.23373        -0.129756     -0.053763      0.116019
C      3.19606      7.29314     10.40319         0.616458     -0.398526      0.002610
C      4.25547      6.23373     10.35913        -0.114520      0.178077      0.010831
C      7.29314      7.29314      0.08601        -0.429105     -0.293040     -0.014918
C      6.23373      6.23373      0.13007         0.147629      0.154554     -0.063357
C      3.19606      3.19606      0.08601         0.293630      0.493029     -0.024570
C      4.25547      4.25547      0.13007        -0.404409     -0.240627     -0.030837
C      7.29314      3.19606     10.40319        -0.283483      0.593994     -0.009204
C      6.23373      4.25547     10.35913         0.016076     -0.093859      0.015748
O     10.43466      3.58206      8.50569        -0.026451      0.070554      0.300841
O     10.54374     17.39634      8.50569         0.063521     -0.122540      0.589684
O     10.54374      3.58206     12.47271         0.029018      0.101707     -0.397626
O     10.43466     17.39634     12.47271         0.094314     -0.062852     -0.437458
O      8.50569     10.43466      3.58206         0.734247     -0.072952      0.016712
O      8.50569     10.54374     17.39634         0.543762      0.063107     -0.104353
O     12.47271     10.54374      3.58206        -0.657449      0.113506      0.211306
O     12.47271     10.43466     17.39634        -0.282981      0.003715      0.036926
O      3.58206      8.50569     10.43466         0.033253      0.444130     -0.064087
O     17.39634      8.50569     10.54374        -0.054713      0.445885      0.056792
O      3.58206     12.47271     10.54374         0.104890     -0.588259      0.003866
O     17.39634     12.47271     10.43466        -0.183468     -0.741211     -0.047732
O      3.58206     10.43466      8.50569         0.207533     -0.060521      0.805689
O     17.39634     10.54374      8.50569        -0.068494      0.070637      0.482630
O      3.58206     10.54374     12.47271        -0.004706     -0.004349     -0.261548
O     17.39634     10.43466     12.47271         0.033309     -0.009813     -0.234136
O     10.43466      8.50569      3.58206        -0.107762      0.532787     -0.100626
O     10.54374      8.50569     17.39634         0.060263      0.512209     -0.083154
O     10.54374     12.47271      3.58206         0.102811     -0.637942      0.129357
O     10.43466     12.47271     17.39634        -0.064838     -0.701408     -0.282287
O      8.50569      3.58206     10.43466         0.396356      0.023124     -0.046513
O      8.50569     17.39634     10.54374         0.639934     -0.154410      0.046211
O     12.47271      3.58206     10.54374        -0.516154      0.121260      0.028783
O     12.47271     17.39634     10.43466        -0.624702     -0.123914      0.041530
O     11.90042     11.90042     19.56718        -0.278212     -0.303247      0.222643
O     19.56718     19.56718     19.56718         0.309655      0.321937      0.298234
O     19.56718     11.90042     11.90042         0.283457     -0.324950     -0.235125
O     11.90042     19.56718     11.90042        -0.314614      0.229483     -0.201261
O      9.45224      1.03696      9.45224        -0.076265      0.089883     -0.077221
O      1.03696      9.45224      9.45224         0.103062     -0.110644     -0.060195
O      1.03696      1.03696      1.03696         0.078866      0.054917      0.098536
O      9.45224      9.45224      1.03696        -0.059174     -0.125241      0.137060
Zr     10.48920      2.52580     10.48920         0.042741     -0.096217      0.122309
Zr     10.48920     18.45260     10.48920        -0.181647      0.247015     -0.360243
Zr     10.48920     10.48920      2.52580         0.113219      0.356129     -0.345332
Zr     10.48920     10.48920     18.45260        -0.080772     -0.261010      0.234981
Zr      2.52580     10.48920     10.48920        -0.241473      0.129163      0.245897
Zr     18.45260     10.48920     10.48920         0.195525     -0.137974     -0.025131
Pd      9.36038     14.30459      9.30836         0.003272      0.029578     -0.027832
Pd      8.59304     13.64611     13.04512         0.011430      0.003977      0.017783
Pd     12.02520     14.40147      8.74715         0.010789     -0.012045      0.015278
Pd     12.75017     12.87743     10.69134        -0.032694     -0.007395      0.036666
Pd     12.11979      7.19027     12.67587         0.002473     -0.008518     -0.002859
Pd     11.15415     14.90709     11.45029        -0.020611      0.027381     -0.016227
Pd     10.03027     12.55866     11.07978        -0.033208      0.026727     -0.024172
Pd     13.48059     12.15450      7.98535         0.006994      0.005627      0.009994
Pd     11.48065     11.54458      6.10781         0.005218      0.010376     -0.003761
Pd      7.94158      8.37521      7.52247        -0.001772     -0.024787     -0.005715
Pd      8.71817     11.75768      6.84424        -0.004994      0.001704     -0.006895
Pd     10.31895      9.45211      8.15261        -0.017648      0.000319      0.010184
Pd      8.49529     14.46475      6.78841        -0.009615      0.004149     -0.018588
Pd     12.39551      9.02193      6.57308        -0.006639      0.022421      0.029177
Pd      9.71804      9.61086      5.57399         0.004193      0.006594      0.005009
Pd      6.82159      9.45591     12.14214         0.016266      0.008249      0.006003
Pd     12.18037      6.74581      7.95497         0.012626      0.007087      0.006992
Pd      5.91265     10.48291      9.69493        -0.004594     -0.007793      0.007909
Pd      7.55018      7.23897     13.40632         0.000096     -0.007622     -0.011999
Ir     11.72992      9.77297     13.06854        -0.008964     -0.016364      0.000006
Ir     13.54887      9.05786     11.47794        -0.010905      0.014125      0.011337
Ir      9.42112      8.86651     14.01144        -0.017177     -0.007762      0.004872
Ir     10.50516     11.00489     14.90474        -0.009220     -0.042909      0.070338
Ir      7.26988     12.01491     11.34126         0.001495     -0.003858      0.010641
Ir     14.64506     10.91795     10.16013        -0.018933      0.020143      0.035895
Ir     12.16157     10.57329      9.67705         0.007180     -0.002976     -0.008324
Ir      8.75570     11.00701     12.99019         0.015527      0.032835     -0.011711
Ir     10.10444      9.91858     11.16915        -0.001110      0.007090     -0.024859
Ir     13.72689     11.41876     12.50115        -0.039991      0.001324      0.039963
Ir     11.57103     12.34623     13.09414        -0.071926     -0.025946      0.009192
Ir      8.49648     11.09812      9.33363        -0.001065     -0.004230     -0.000547
Ir     11.59330      8.02691     10.14551         0.009670      0.000093      0.006745
Ir      7.21876     13.03336      8.65827         0.007376      0.015234      0.012302
Ir      9.54843      6.96277      9.23896         0.006655     -0.003804     -0.003092
Ir      8.05223      8.76387     10.05725        -0.004886      0.006549     -0.005199
Ir     10.71991     12.12293      8.50083         0.001182     -0.000196     -0.006157
Ir      9.51388      7.57427     11.75564         0.003926      0.005370      0.002245
Ir     13.66927      8.80169      8.84547         0.016001      0.005032      0.021633
