35
# total energy = -301.57753807 eVC      6.68367     10.29354      7.65049         0.016785     -0.031399      0.001831
C      8.06840      9.93596      7.57909         0.016762      0.049160      0.007156
C      9.42111      5.70510      7.65001        -0.023973      0.021276     -0.002656
C      1.46086      5.35294      7.66834         0.022831     -0.025188      0.000151
C      4.19778      0.76362      7.63265        -0.013672      0.034647      0.007299
C      2.81294      1.12117      7.56386        -0.018635     -0.047926      0.005894
C      0.70761      4.16826      7.64422         0.028199     -0.013896      0.001037
C      1.09974      2.79324      7.57022        -0.049818     -0.020616      0.008240
C      5.36304      1.54668      7.64685        -0.020371      0.026008     -0.004391
C      5.51806      9.51077      7.67041         0.025558     -0.025727      0.000265
C     10.17484      6.88958      7.64172        -0.036921      0.015272      0.004877
C      9.78302      8.26515      7.57325         0.049681      0.012073      0.006070
C      0.77308      6.58011      7.64873         0.040139      0.014134     -0.003861
C      1.25540      7.92829      7.58041         0.007892      0.001878      0.002552
C     10.10911      4.47791      7.64264        -0.041906     -0.015333      0.000614
C      9.62717      3.12985      7.56962        -0.002964     -0.000560      0.001092
C      4.27399     10.16759      7.65033        -0.013629     -0.038290      0.000377
C      2.93794      9.65237      7.58099        -0.005285     -0.006249      0.004647
C      6.60737      0.88994      7.63763         0.013513      0.035093      0.001751
C      7.94341      1.40508      7.56789         0.004297      0.003903      0.001084
N      8.80970      0.31092      7.48133        -0.019301      0.026562     -0.004261
N      0.14077      8.76733      7.48745         0.024607     -0.022968      0.004668
N      8.53114      8.69556      7.59746         0.003495      0.001438      0.004192
N      2.35137      2.36183      7.58970        -0.004282     -0.001089      0.005829
N      2.07139     10.74596      7.49028         0.020054     -0.022598     -0.001606
N     10.74280      2.29127      7.48340        -0.024940      0.014889      0.000516
N      2.56849      8.32998      7.60040        -0.023010      0.018325     -0.004111
N      8.31388      2.72756      7.58465         0.020861     -0.020178     -0.006222
O      5.33364      2.87507      7.62794        -0.007301      0.036078     -0.008650
O      5.54778      8.18219      7.67599         0.010732     -0.033290      0.005103
O      8.09253      5.70085      7.62332        -0.033989      0.014167     -0.001622
O      2.78954      5.35635      7.67665         0.043907     -0.007323      0.004689
Zr      6.54012      4.45702      7.59886         0.000277     -0.001622     -0.020193
Zr      4.34407      6.59820      7.67735        -0.013403      0.007166      0.017190
Zr      0.02543     10.81051      6.85838         0.003810      0.002184     -0.039553
