33
# total energy = -231.16777969 eVH      9.31416      4.28530      7.50000         0.009005     -0.005299     -0.000000
H      0.88804      5.91690      7.50000        -0.009005      0.005299     -0.000000
H      5.91690      9.31416      7.50000         0.005299      0.009005     -0.000000
H      4.28530      0.88804      7.50000        -0.005299     -0.009005     -0.000000
H      0.88804      4.28530      7.50000        -0.009005     -0.005299     -0.000000
H      9.31416      5.91690      7.50000         0.009005      0.005299      0.000000
H      4.28530      9.31416      7.50000        -0.005299      0.009005     -0.000000
H      5.91690      0.88804      7.50000         0.005299     -0.009005     -0.000000
C     -0.00000      1.94760      7.50000         0.000000     -0.004910     -0.000000
C      0.00000      8.25460      7.50000        -0.000000      0.004910     -0.000000
C      8.25460      0.00000      7.50000         0.004910     -0.000000     -0.000000
C      1.94760      0.00000      7.50000        -0.004910     -0.000000     -0.000000
C      8.83782      2.45038      7.50000         0.004439      0.005802      0.000000
C      1.36438      7.75182      7.50000        -0.004439     -0.005802     -0.000000
C      7.75182      8.83782      7.50000        -0.005802      0.004439     -0.000000
C      2.45038      1.36438      7.50000         0.005802     -0.004439     -0.000000
C      1.36438      2.45038      7.50000        -0.004439      0.005802     -0.000000
C      8.83782      7.75182      7.50000         0.004439     -0.005802      0.000000
C      2.45038      8.83782      7.50000         0.005802      0.004439      0.000000
C      7.75182      1.36438      7.50000        -0.005802     -0.004439      0.000000
N      8.45974      3.72234      7.50000         0.005586      0.007126     -0.000000
N      1.74246      6.47986      7.50000        -0.005586     -0.007126     -0.000000
N      6.47986      8.45974      7.50000        -0.007126      0.005586     -0.000000
N      3.72234      1.74246      7.50000         0.007126     -0.005586      0.000000
N      1.74246      3.72234      7.50000        -0.005586      0.007126      0.000000
N      8.45974      6.47986      7.50000         0.005586     -0.007126      0.000000
N      3.72234      8.45974      7.50000         0.007126      0.005586     -0.000000
N      6.47986      1.74246      7.50000        -0.007126     -0.005586     -0.000000
Ir      5.10110      6.75861      7.50000        -0.000000     -0.005757     -0.000000
Ir      5.10110      3.44359      7.50000        -0.000000      0.005757     -0.000000
Ir      3.44359      5.10110      7.50000         0.005757     -0.000000     -0.000000
Ir      6.75861      5.10110      7.50000        -0.005757     -0.000000     -0.000000
Ir      0.00000      0.00000      7.50000        -0.000000     -0.000000     -0.000000
