152
# total energy = -1023.42112488 eVH     10.35389      5.87395      7.64558         0.485749      0.082064      0.737855
H     10.62451     15.10445      7.64558        -0.033030     -0.132300      0.658897
H     10.62451      5.87395     13.33282         0.139143      0.153660     -0.625564
H     10.35389     15.10445     13.33282        -0.303033     -0.059140     -0.701501
H      7.64558     10.35389      5.87395         0.301479     -0.019765      0.183037
H      7.64558     10.62451     15.10445         0.935000     -0.368133     -0.007146
H     13.33282     10.62451      5.87395        -0.747384     -0.024473      0.186923
H     13.33282     10.35389     15.10445        -0.628115     -0.189149     -0.004686
H      5.87395      7.64558     10.35389         0.206655      0.872942     -0.132050
H     15.10445      7.64558     10.62451        -0.154845      0.410751     -0.064907
H      5.87395     13.33282     10.62451         0.179309     -0.467283     -0.067878
H     15.10445     13.33282     10.35389        -0.118867     -0.914472      0.090160
H      5.87395     10.35389      7.64558         0.140939      0.103613      0.441407
H     15.10445     10.62451      7.64558         0.100912      0.050403      1.152081
H      5.87395     10.62451     13.33282         0.129600     -0.035370     -0.378883
H     15.10445     10.35389     13.33282        -0.119639     -0.087786     -0.589610
H     10.35389      7.64558      5.87395        -0.041628      0.850404      0.217302
H     10.62451      7.64558     15.10445         0.010193      0.328571     -0.179495
H     10.62451     13.33282      5.87395        -0.025289     -0.554771      0.216831
H     10.35389     13.33282     15.10445        -0.617738     -0.863911     -0.049816
H      7.64558      5.87395     10.35389         0.462653      0.107505      0.029869
H      7.64558     15.10445     10.62451         0.796466     -0.284753      0.046766
H     13.33282      5.87395     10.62451        -0.448574      0.175579     -0.055601
H     13.33282     15.10445     10.35389        -0.620729     -0.083065      0.197060
H     12.45634     12.45634     19.01126         0.246433      0.277722     -0.226690
H     19.01126     19.01126     19.01126        -0.252784     -0.237824     -0.254715
H     19.01126     12.45634     12.45634        -0.243628      0.274353      0.230054
H     12.45634     19.01126     12.45634         0.227602     -0.262068      0.245256
C     10.35284      5.61067      6.59456        -0.215147     -0.477967      0.015651
C     10.62556     15.36773      6.59456         0.045947      0.408383     -0.917741
C     10.62556      5.61067     14.38384        -0.056976     -0.143495      0.757540
C     10.35284     15.36773     14.38384         0.060307      0.811631      0.334868
C      6.59456     10.35284      5.61067        -0.377284     -0.035983     -0.224434
C      6.59456     10.62556     15.36773        -1.083445      0.398869      0.425471
C     14.38384     10.62556      5.61067         0.385025      0.277615     -0.573304
C     14.38384     10.35284     15.36773         0.834315     -0.093527      0.392810
C      5.61067      6.59456     10.35284        -0.334902     -0.565777      0.393453
C     15.36773      6.59456     10.62556         0.165044     -0.508973      0.040975
C      5.61067     14.38384     10.62556        -0.111557      0.455171     -0.005712
C     15.36773     14.38384     10.35284         0.296883     -0.145008     -0.190019
C      5.61067     10.35284      6.59456        -0.266577     -0.027178     -0.786260
C     15.36773     10.62556      6.59456         0.663984     -0.329075     -1.332254
C      5.61067     10.62556     14.38384        -0.500342     -0.018337      0.216000
C     15.36773     10.35284     14.38384         0.623143     -0.132858      1.319959
C     10.35284      6.59456      5.61067        -0.236771     -0.555739     -0.657607
C     10.62556      6.59456     15.36773         0.037202     -0.352066      0.181404
C     10.62556     14.38384      5.61067         0.135741      1.079236     -0.439453
C     10.35284     14.38384     15.36773         0.116177      0.390557      0.744103
C      6.59456      5.61067     10.35284        -0.272650     -0.812140      0.070787
C      6.59456     15.36773     10.62556        -1.321221      0.345342      0.066470
C     14.38384      5.61067     10.62556         0.648846     -0.236574      0.011221
C     14.38384     15.36773     10.35284        -0.454144      0.650800     -0.367541
C     10.40319      3.19606      7.29314         0.018270      0.915456     -0.363123
C     10.35913      4.25547      6.23373         0.019586     -0.450828      0.603000
C      0.08601      7.29314      7.29314        -0.003200     -0.397799     -0.424873
C      0.13007      6.23373      6.23373         0.003049      0.057552      0.128844
C      0.08601      3.19606      3.19606        -0.014630      0.748852      0.177675
C      0.13007      4.25547      4.25547        -0.077407     -0.176925     -0.233645
C     10.40319      7.29314      3.19606         0.006439     -0.851022      0.513612
C     10.35913      6.23373      4.25547         0.023069      0.438768     -0.622084
C      7.29314     10.40319      3.19606        -0.361872      0.036757      0.900811
C      6.23373     10.35913      4.25547         0.212026      0.061983     -0.110302
C      7.29314      0.08601      7.29314        -0.402889     -0.032895     -0.283965
C      6.23373      0.13007      6.23373         0.437921     -0.055382      0.460592
C      3.19606      0.08601      3.19606         0.658140     -0.024372      0.464010
C      4.25547      0.13007      4.25547        -0.095055     -0.051662     -0.414599
C      3.19606     10.40319      7.29314         0.765389     -0.004786     -0.593494
C      4.25547     10.35913      6.23373        -0.203830      0.066174      0.155094
C      3.19606      7.29314     10.40319         0.543341     -1.300179     -0.030861
C      4.25547      6.23373     10.35913        -0.530706      0.833916      0.055193
C      7.29314      7.29314      0.08601        -0.561533     -0.228441     -0.016302
C      6.23373      6.23373      0.13007         0.180370      0.146113     -0.006728
C      3.19606      3.19606      0.08601         0.246358      0.314920     -0.024249
C      4.25547      4.25547      0.13007        -0.065094     -0.043484      0.006142
C      7.29314      3.19606     10.40319        -0.360571      0.744415      0.007286
C      6.23373      4.25547     10.35913         1.058125      0.040442      0.001799
O     10.43466      3.58206      8.50569        -0.043061      0.028300      0.396319
O     10.54374     17.39634      8.50569        -0.023667     -0.123320      0.507022
O     10.54374      3.58206     12.47271         0.048680      0.029628     -0.266058
O     10.43466     17.39634     12.47271        -0.037031     -0.093243     -0.567699
O      8.50569     10.43466      3.58206         0.350243     -0.027442     -0.027677
O      8.50569     10.54374     17.39634         0.514488      0.036349     -0.151600
O     12.47271     10.54374      3.58206        -0.610668     -0.016971      0.160075
O     12.47271     10.43466     17.39634        -0.737828     -0.016102     -0.120458
O      3.58206      8.50569     10.43466         0.161699      1.109197      0.007612
O     17.39634      8.50569     10.54374        -0.042170      0.362134      0.070877
O      3.58206     12.47271     10.54374         0.082983     -0.498620      0.035107
O     17.39634     12.47271     10.43466        -0.161612     -0.728095      0.015153
O      3.58206     10.43466      8.50569        -0.044116     -0.067550      0.458427
O     17.39634     10.54374      8.50569        -0.120259      0.043649      0.421418
O      3.58206     10.54374     12.47271         0.057006      0.004339     -0.469829
O     17.39634     10.43466     12.47271        -0.219298      0.046284     -0.762143
O     10.43466      8.50569      3.58206         0.069031      0.780217      0.195566
O     10.54374      8.50569     17.39634         0.071964      0.559164     -0.104570
O     10.54374     12.47271      3.58206        -0.018616     -0.798177      0.232650
O     10.43466     12.47271     17.39634         0.022801     -0.963965     -0.231769
O      8.50569      3.58206     10.43466         0.513821      0.085811     -0.024424
O      8.50569     17.39634     10.54374         0.631507     -0.234443     -0.031426
O     12.47271      3.58206     10.54374        -0.447509      0.136020      0.046920
O     12.47271     17.39634     10.43466        -0.446479      0.021377     -0.015155
O     11.90042     11.90042     19.56718        -0.270608     -0.328218      0.245438
O     19.56718     19.56718     19.56718         0.287645      0.272696      0.302752
O     19.56718     11.90042     11.90042         0.271992     -0.328373     -0.222801
O     11.90042     19.56718     11.90042        -0.271794      0.285027     -0.265307
O      9.45224      1.03696      9.45224        -0.081017      0.047733     -0.063068
O      1.03696      9.45224      9.45224         0.057298     -0.158222     -0.092361
O      1.03696      1.03696      1.03696         0.017188      0.057532      0.181146
O      9.45224      9.45224      1.03696        -0.053110     -0.085454      0.130529
Zr     10.48920      2.52580     10.48920        -0.031750     -0.075685     -0.081196
Zr     10.48920     18.45260     10.48920         0.088331      0.277964      0.000180
Zr     10.48920     10.48920      2.52580         0.008072     -0.052357     -0.469721
Zr     10.48920     10.48920     18.45260        -0.229783     -0.024940      0.448605
Zr      2.52580     10.48920     10.48920        -0.397989      0.266134      0.068022
Zr     18.45260     10.48920     10.48920         0.219395      0.060274     -0.298983
Pd      8.74138      9.98852     13.39733         0.007503     -0.368702     -0.252409
Pd     10.55062      9.54044     10.44667         0.166948      0.592475      0.265195
Pd     13.60826      8.65465     12.57004        -0.137299      0.037082     -0.144498
Pd     10.86300     10.73428     15.14431        -0.025423      0.059409     -0.415902
Pd     12.95827     11.25986     13.21398        -0.137480     -0.233313      0.208489
Pd     15.00930     10.77740     11.35302        -0.138084      0.119672     -0.277871
Pd      6.58052      7.84809     12.43062         0.232135      0.073876      0.046957
Pd      9.28553      7.21806      9.72433         0.037724     -0.010405     -0.026881
Pd      9.28623      7.46767     12.46521         0.013455     -0.077090      0.192129
Pd     11.67189      7.32610     11.24834         0.246506     -0.423418      0.142994
Pd     11.73887      7.84856      8.60349        -0.161653     -0.221632      0.070503
Pd      7.34434     11.74983     11.69522        -0.112271     -0.105938     -0.166417
Pd      9.29047     14.59495      9.52859        -0.213594      0.146072     -0.004062
Pd      8.12874     12.43127     14.26395         0.029836      0.143503      0.054760
Pd     14.15303     14.23483      8.30382        -0.058519     -0.133777      0.104995
Pd     11.59911     13.55089      8.82915         0.043392     -0.120609     -0.079849
Pd     14.16972     11.63665      8.91408        -0.254501      0.037326      0.047024
Pd      8.76953     13.96411     12.21525        -0.139049     -0.046007     -0.138390
Pd     12.15100     13.68971     14.16959         0.218616     -0.188827     -0.379377
Pd     11.37279     14.23159     11.50040         0.055532     -0.176716     -0.078723
Pd     13.96655     13.49006     12.21833         0.277028      0.308365     -0.033540
Pd     12.36678     11.89104     10.75997         0.076825     -0.452259      0.401654
Pd     12.74236     12.57216      6.68420         0.087734     -0.019217     -0.023656
Pd     13.98510      8.93542      7.75338        -0.039378      0.012579      0.061483
Pd      6.98422      8.45760      8.69189         0.026769     -0.095185     -0.213783
Pd      5.65550     10.07831     10.39230        -0.019048      0.088702      0.102029
Pd      9.40774      9.34197      7.80348        -0.029057      0.011962      0.109477
Pd      8.48465      6.93726      7.15373         0.029836     -0.212220     -0.212915
Pd      9.74421     12.03863     10.46947         0.000899     -0.012783     -0.135833
Pd     11.65203     10.68030      8.29359         0.269086      0.418063      0.010177
Pd     11.68479      8.99089      6.19426        -0.018144      0.218348     -0.075351
Pd     10.19950     11.30170      6.17374         0.147852     -0.206212     -0.698356
Ir     11.16188      9.32031     12.94459        -0.260532      0.816240     -0.252054
Ir     13.16415      9.44302     10.13317         0.149650      0.036164      0.113086
Ir     10.43690     12.05586     12.89421         0.421833     -0.467274     -0.151252
Ir      7.76824     10.95005      9.12464        -0.083851     -0.145496      0.181315
Ir      9.11643     12.50585      8.00214         0.159591      0.188532      0.964855
Ir      8.14344      9.26437     10.97384        -0.340391      0.246270     -0.094754
