8
# total energy = -53.14943043 eVC      1.14292     13.27183      0.00000        -0.000000     -4.779265     -0.000000
C      1.14292      4.01437      0.00000         0.000000      4.779265      0.000000
O      1.14292      5.24669     -0.00000        -0.000000     -2.436142      0.000000
O      1.14292     12.03951      0.00000        -0.000000      2.436142      0.000000
O      0.00000     13.96809      0.00000         0.000000      2.205943      0.000000
O      0.00000      3.31811      0.00000        -0.000000     -2.205943      0.000000
Ir      0.00000      8.64310      0.00000        -0.000000      0.000000      0.000000
Ir      0.00000      0.00000      0.00000        -0.000000      0.000000      0.000000
