152
# total energy = -1022.82247356 eVH     10.35389      5.87395      7.64558         0.477411      0.032639      0.909463
H     10.62451     15.10445      7.64558        -0.044443      0.038748      0.767632
H     10.62451      5.87395     13.33282         0.143410      0.115552     -0.604265
H     10.35389     15.10445     13.33282        -0.269136     -0.075815     -0.568049
H      7.64558     10.35389      5.87395         0.333931     -0.037143      0.191168
H      7.64558     10.62451     15.10445         0.614840     -0.186994     -0.142187
H     13.33282     10.62451      5.87395        -0.858887     -0.317280      0.167410
H     13.33282     10.35389     15.10445        -0.467423     -0.090699     -0.063558
H      5.87395      7.64558     10.35389         0.125770      1.130387     -0.144252
H     15.10445      7.64558     10.62451        -0.170042      0.403094     -0.085525
H      5.87395     13.33282     10.62451         0.143030     -0.407104     -0.071714
H     15.10445     13.33282     10.35389        -0.076749     -0.968334     -0.196786
H      5.87395     10.35389      7.64558         0.129282      0.038989      0.479366
H     15.10445     10.62451      7.64558         0.129070     -0.214539      0.807286
H      5.87395     10.62451     13.33282         0.270196     -0.027876     -0.394380
H     15.10445     10.35389     13.33282        -0.143679      0.013210     -0.623625
H     10.35389      7.64558      5.87395         0.063547      0.836260      0.121323
H     10.62451      7.64558     15.10445         0.027297      0.564313     -0.147734
H     10.62451     13.33282      5.87395         0.068698     -0.607155      0.183921
H     10.35389     13.33282     15.10445        -0.251242     -0.886113     -0.105904
H      7.64558      5.87395     10.35389         0.526991      0.038287     -0.136993
H      7.64558     15.10445     10.62451         0.913148     -0.211598      0.295891
H     13.33282      5.87395     10.62451        -0.435120      0.187419     -0.058070
H     13.33282     15.10445     10.35389        -0.998572     -0.098958      0.248763
H     12.45634     12.45634     19.01126         0.267295      0.257541     -0.224476
H     19.01126     19.01126     19.01126        -0.247552     -0.234909     -0.262514
H     19.01126     12.45634     12.45634        -0.241477      0.270114      0.238996
H     12.45634     19.01126     12.45634         0.211214     -0.283252      0.252735
C     10.35284      5.61067      6.59456        -0.131641     -0.427811     -0.415885
C     10.62556     15.36773      6.59456         0.020892      0.345788     -1.150313
C     10.62556      5.61067     14.38384        -0.025852     -0.222749      0.723386
C     10.35284     15.36773     14.38384         0.187469      0.773751      0.143060
C      6.59456     10.35284      5.61067        -0.420094     -0.040964     -0.183376
C      6.59456     10.62556     15.36773        -0.785418      0.149006      0.351615
C     14.38384     10.62556      5.61067         0.634036      0.281062     -0.364391
C     14.38384     10.35284     15.36773         0.735556     -0.123038      0.427361
C      5.61067      6.59456     10.35284        -0.427397     -0.767556      0.273789
C     15.36773      6.59456     10.62556         0.197816     -0.471008      0.045180
C      5.61067     14.38384     10.62556        -0.255006      0.380495     -0.023138
C     15.36773     14.38384     10.35284         0.405618      0.138356      0.186663
C      5.61067     10.35284      6.59456        -0.308048     -0.012548     -0.887583
C     15.36773     10.62556      6.59456         0.567717     -0.149827     -1.230186
C      5.61067     10.62556     14.38384        -0.463090      0.007483      0.903653
C     15.36773     10.35284     14.38384         0.529032     -0.175404      1.244251
C     10.35284      6.59456      5.61067        -0.037722     -0.912587     -0.675612
C     10.62556      6.59456     15.36773         0.044268     -0.669730      0.299835
C     10.62556     14.38384      5.61067         0.042878      1.255962     -0.689367
C     10.35284     14.38384     15.36773         0.092921      0.594793      0.667216
C      6.59456      5.61067     10.35284        -0.225812     -0.897305      0.127878
C      6.59456     15.36773     10.62556        -1.728315      0.495221      0.044208
C     14.38384      5.61067     10.62556         0.579913     -0.224298     -0.007696
C     14.38384     15.36773     10.35284         0.157906      0.558748     -0.237326
C     10.40319      3.19606      7.29314         0.016412      0.913668     -0.252840
C     10.35913      4.25547      6.23373        -0.051671     -0.364028      0.620446
C      0.08601      7.29314      7.29314        -0.008829     -0.237017     -0.472684
C      0.13007      6.23373      6.23373         0.002901      0.117440      0.208795
C      0.08601      3.19606      3.19606        -0.016433      0.644484      0.179633
C      0.13007      4.25547      4.25547        -0.090753     -0.200026     -0.170049
C     10.40319      7.29314      3.19606        -0.000925     -0.693767      0.530576
C     10.35913      6.23373      4.25547        -0.004115      0.522871     -0.388344
C      7.29314     10.40319      3.19606        -0.345514      0.023316      0.847455
C      6.23373     10.35913      4.25547         0.212251      0.014781     -0.143418
C      7.29314      0.08601      7.29314        -0.308366     -0.046454     -0.268702
C      6.23373      0.13007      6.23373         0.266714     -0.059354      0.291906
C      3.19606      0.08601      3.19606         0.434864     -0.052668      1.299767
C      4.25547      0.13007      4.25547        -0.116196     -0.029051     -0.462465
C      3.19606     10.40319      7.29314         0.709394      0.015302     -0.264369
C      4.25547     10.35913      6.23373        -0.137253      0.033741      0.109034
C      3.19606      7.29314     10.40319         0.605121     -1.264490      0.025928
C      4.25547      6.23373     10.35913        -0.716848      0.840424      0.047737
C      7.29314      7.29314      0.08601        -0.661104     -0.168507     -0.022933
C      6.23373      6.23373      0.13007         0.171543      0.269799     -0.009774
C      3.19606      3.19606      0.08601         0.241230      0.251056     -0.019827
C      4.25547      4.25547      0.13007        -0.052203     -0.036032      0.012299
C      7.29314      3.19606     10.40319        -0.372840      0.787206      0.015799
C      6.23373      4.25547     10.35913         0.877797     -0.157778      0.011032
O     10.43466      3.58206      8.50569        -0.049702      0.031169      0.318237
O     10.54374     17.39634      8.50569        -0.024539     -0.182781      0.605286
O     10.54374      3.58206     12.47271         0.055413      0.062151     -0.323262
O     10.43466     17.39634     12.47271        -0.023894     -0.124840     -0.582430
O      8.50569     10.43466      3.58206         0.386365     -0.023701     -0.010461
O      8.50569     10.54374     17.39634         0.470979      0.053577     -0.143359
O     12.47271     10.54374      3.58206        -0.283146      0.049632     -0.077074
O     12.47271     10.43466     17.39634        -0.855394      0.020950     -0.224635
O      3.58206      8.50569     10.43466         0.040941      0.917413      0.039392
O     17.39634      8.50569     10.54374        -0.037864      0.336255      0.078015
O      3.58206     12.47271     10.54374         0.064042     -0.420793      0.063903
O     17.39634     12.47271     10.43466        -0.169875     -0.773603      0.018727
O      3.58206     10.43466      8.50569        -0.056451     -0.066517      0.225989
O     17.39634     10.54374      8.50569        -0.135977      0.042233      0.457563
O      3.58206     10.54374     12.47271        -0.018868     -0.052292     -0.889672
O     17.39634     10.43466     12.47271        -0.197318      0.040393     -0.760679
O     10.43466      8.50569      3.58206         0.045194      0.684014      0.191747
O     10.54374      8.50569     17.39634         0.054101      0.432197     -0.078510
O     10.54374     12.47271      3.58206        -0.008538     -0.728661      0.227858
O     10.43466     12.47271     17.39634         0.049980     -0.855023     -0.277153
O      8.50569      3.58206     10.43466         0.493967      0.077308     -0.038594
O      8.50569     17.39634     10.54374         0.658016     -0.253315     -0.061597
O     12.47271      3.58206     10.54374        -0.486178      0.163303      0.039680
O     12.47271     17.39634     10.43466        -0.529570     -0.039428     -0.029986
O     11.90042     11.90042     19.56718        -0.304433     -0.312381      0.263732
O     19.56718     19.56718     19.56718         0.287556      0.271312      0.320855
O     19.56718     11.90042     11.90042         0.280862     -0.330504     -0.244928
O     11.90042     19.56718     11.90042        -0.228345      0.290604     -0.240799
O      9.45224      1.03696      9.45224        -0.073835      0.048069     -0.067240
O      1.03696      9.45224      9.45224         0.055768     -0.145212     -0.056933
O      1.03696      1.03696      1.03696         0.044155      0.032314      0.187083
O      9.45224      9.45224      1.03696        -0.039114     -0.092793      0.121731
Zr     10.48920      2.52580     10.48920        -0.007883     -0.073467     -0.022381
Zr     10.48920     18.45260     10.48920         0.059640      0.309138     -0.071831
Zr     10.48920     10.48920      2.52580        -0.103740      0.014582     -0.372127
Zr     10.48920     10.48920     18.45260        -0.136119     -0.157691      0.329124
Zr      2.52580     10.48920     10.48920        -0.347113      0.317449     -0.465714
Zr     18.45260     10.48920     10.48920         0.238433      0.040107     -0.259816
Pd      9.04274     10.26756     13.33746        -0.013367     -0.015552     -0.001476
Pd     10.59248      9.73279     10.99267        -0.017806     -0.013272     -0.038835
Pd     13.75903      8.55278     12.68348         0.003301      0.003287     -0.010806
Pd     11.00042     11.07807     15.02559        -0.000276     -0.016393     -0.001778
Pd     12.86547     11.19773     13.03705         0.010814     -0.004334      0.002997
Pd     14.97264     10.93530     11.34075         0.009855      0.012450     -0.006177
Pd      6.65873      7.43783     12.33926        -0.005033      0.022256      0.001041
Pd      9.22213      7.26531     10.13659         0.009912      0.014483     -0.029012
Pd      9.26915      7.61513     12.80696         0.004389     -0.008374     -0.022560
Pd     11.69564      7.29136     11.46650         0.005538      0.000272     -0.006855
Pd     11.38299      7.99942      8.86109         0.039214     -0.011989     -0.009592
Pd      7.26046     11.84063     11.96301         0.002275      0.002075     -0.012513
Pd      8.90769     14.67899      9.33922         0.033256      0.005744      0.012609
Pd      8.42054     12.66302     14.32512        -0.009400     -0.005675      0.001601
Pd     13.52532     14.08524      8.56289         0.084482      0.034138     -0.047833
Pd     10.98380     13.33634      8.52333         0.068713      0.036068      0.039383
Pd     14.08143     11.51483      8.92409         0.012451      0.032247     -0.008393
Pd      8.62621     14.11100     12.10391         0.005185     -0.004397      0.001579
Pd     12.24335     13.75063     14.02543        -0.002721     -0.007596      0.002497
Pd     11.16662     14.43055     11.15543         0.023664     -0.013213      0.040562
Pd     14.05976     13.56118     12.17232        -0.010254      0.005475     -0.004090
Pd     12.31462     12.14433     10.68021        -0.003731     -0.017434      0.015179
Pd     12.65866     12.32330      6.71902         0.015719      0.037851     -0.020686
Pd     13.64480      8.93482      7.91358         0.034614      0.008011      0.000185
Pd      6.85930      8.46924      8.86045         0.012162      0.005368     -0.006682
Pd      5.52886      9.93468     11.26870        -0.000283      0.027410     -0.043653
Pd      9.13670      9.75115      8.30481         0.038736     -0.015688     -0.012935
Pd      8.81957      7.23876      7.47800        -0.015198     -0.007384     -0.034829
Pd      9.52767     12.08519     10.43171         0.022736      0.003108      0.006451
Pd     11.52485     10.71012      8.57876         0.012156      0.004074     -0.035450
Pd     11.23450      9.24801      6.43597         0.033608     -0.017121     -0.003205
Pd      9.89484     11.56094      6.38297         0.021896     -0.020748     -0.008786
Ir     11.35603      9.11224     13.36613        -0.004040      0.011402     -0.033146
Ir     13.07393      9.47236     10.38770         0.017506      0.012861     -0.002556
Ir     10.53948     12.36149     12.71599        -0.008436     -0.017810      0.005511
Ir      7.14034     10.98647      9.51362         0.044988      0.003968     -0.022874
Ir      8.40604     12.46206      8.19441         0.062004      0.024642     -0.022630
Ir      8.07098      9.30811     11.12302         0.010246     -0.000912     -0.004135
