20
# total energy = -156.13922255 eVC      8.41847      4.03046      7.50000         0.124872      0.194766     -0.000000
C      1.43714      0.00014      7.50000        -0.236571     -0.007738      0.000000
C      8.41843     -4.03101      7.50000         0.130420     -0.219647     -0.000000
C      0.71868      1.24456      7.50000        -0.124872     -0.194766      0.000000
C      7.70001      5.27488      7.50000         0.236571      0.007738      0.000000
C      0.71872      9.30604      7.50000        -0.130420      0.219647     -0.000000
C      7.72363     -2.82763      7.50000        -0.649556      1.126121     -0.000000
C      7.72356      2.82646      7.50000        -0.627396     -1.081527      0.000000
C      2.82693     -0.00013      7.50000         1.332385      0.002956     -0.000000
C      1.41353      8.10266      7.50000         0.649556     -1.126121     -0.000000
C      1.41360      2.44856      7.50000         0.627396      1.081527      0.000000
C      6.31022      5.27515      7.50000        -1.332385     -0.002956     -0.000000
N      7.13090     -1.80086      7.50000         0.547572     -0.947508     -0.000000
N      7.13096      1.80008      7.50000         0.531992      0.919295     -0.000000
N      4.01287     -0.00021      7.50000        -1.135468     -0.000333     -0.000000
N      2.00626      7.07588      7.50000        -0.547572      0.947508     -0.000000
N      2.00620      3.47494      7.50000        -0.531992     -0.919295      0.000000
N      5.12429      5.27523      7.50000         1.135468      0.000333     -0.000000
Au      6.09146     -0.00039      7.50000         0.001336     -0.001006     -0.000000
Au      3.04570      5.27541      7.50000        -0.001336      0.001006     -0.000000
