114
# total energy = -848.61529186 eVH     10.35399      5.87705      7.65171        -0.001674     -0.003302     -0.026412
H     10.62441     15.10135      7.65171         0.001674      0.003302     -0.026412
H     10.62441      5.87705     13.32669         0.001674     -0.003302      0.026412
H     10.35399     15.10135     13.32669        -0.001674      0.003302      0.026412
H      7.65171     10.35399      5.87705        -0.026412     -0.001674     -0.003302
H      7.65171     10.62441     15.10135        -0.026412      0.001674      0.003302
H     13.32669     10.62441      5.87705         0.026412      0.001674     -0.003302
H     13.32669     10.35399     15.10135         0.026412     -0.001674      0.003302
H      5.87705      7.65171     10.35399        -0.003302     -0.026412     -0.001674
H     15.10135      7.65171     10.62441         0.003302     -0.026412      0.001674
H      5.87705     13.32669     10.62441        -0.003302      0.026412      0.001674
H     15.10135     13.32669     10.35399         0.003302      0.026412     -0.001674
H      5.87705     10.35399      7.65171        -0.003302     -0.001674     -0.026412
H     15.10135     10.62441      7.65171         0.003302      0.001674     -0.026412
H      5.87705     10.62441     13.32669        -0.003302      0.001674      0.026412
H     15.10135     10.35399     13.32669         0.003302     -0.001674      0.026412
H     10.35399      7.65171      5.87705        -0.001674     -0.026412     -0.003302
H     10.62441      7.65171     15.10135         0.001674     -0.026412      0.003302
H     10.62441     13.32669      5.87705         0.001674      0.026412     -0.003302
H     10.35399     13.32669     15.10135        -0.001674      0.026412      0.003302
H      7.65171      5.87705     10.35399        -0.026412     -0.003302     -0.001674
H      7.65171     15.10135     10.62441        -0.026412      0.003302      0.001674
H     13.32669      5.87705     10.62441         0.026412     -0.003302      0.001674
H     13.32669     15.10135     10.35399         0.026412      0.003302     -0.001674
H     12.45695     12.45695     19.01065         0.009510      0.009510     -0.009510
H     19.01065     19.01065     19.01065        -0.009510     -0.009510     -0.009510
H     19.01065     12.45695     12.45695        -0.009510      0.009510      0.009510
H     12.45695     19.01065     12.45695         0.009510     -0.009510      0.009510
C     10.35220      5.61033      6.59363         0.006056     -0.000225      0.024621
C     10.62620     15.36807      6.59363        -0.006056      0.000225      0.024621
C     10.62620      5.61033     14.38477        -0.006056     -0.000225     -0.024621
C     10.35220     15.36807     14.38477         0.006056      0.000225     -0.024621
C      6.59363     10.35220      5.61033         0.024621      0.006056     -0.000225
C      6.59363     10.62620     15.36807         0.024621     -0.006056      0.000225
C     14.38477     10.62620      5.61033        -0.024621     -0.006056     -0.000225
C     14.38477     10.35220     15.36807        -0.024621      0.006056      0.000225
C      5.61033      6.59363     10.35220        -0.000225      0.024621      0.006056
C     15.36807      6.59363     10.62620         0.000225      0.024621     -0.006056
C      5.61033     14.38477     10.62620        -0.000225     -0.024621     -0.006056
C     15.36807     14.38477     10.35220         0.000225     -0.024621      0.006056
C      5.61033     10.35220      6.59363        -0.000225      0.006056      0.024621
C     15.36807     10.62620      6.59363         0.000225     -0.006056      0.024621
C      5.61033     10.62620     14.38477        -0.000225     -0.006056     -0.024621
C     15.36807     10.35220     14.38477         0.000225      0.006056     -0.024621
C     10.35220      6.59363      5.61033         0.006056      0.024621     -0.000225
C     10.62620      6.59363     15.36807        -0.006056      0.024621      0.000225
C     10.62620     14.38477      5.61033        -0.006056     -0.024621     -0.000225
C     10.35220     14.38477     15.36807         0.006056     -0.024621      0.000225
C      6.59363      5.61033     10.35220         0.024621     -0.000225      0.006056
C      6.59363     15.36807     10.62620         0.024621      0.000225     -0.006056
C     14.38477      5.61033     10.62620        -0.024621     -0.000225     -0.006056
C     14.38477     15.36807     10.35220        -0.024621      0.000225      0.006056
C     10.40378      3.19565      7.29355        -0.005308      0.000394     -0.000394
C     10.36130      4.25374      6.23546        -0.004050     -0.001671      0.001671
C      0.08542      7.29355      7.29355         0.005308     -0.000394     -0.000394
C      0.12790      6.23546      6.23546         0.004050      0.001671      0.001671
C      0.08542      3.19565      3.19565         0.005308      0.000394      0.000394
C      0.12790      4.25374      4.25374         0.004050     -0.001671     -0.001671
C     10.40378      7.29355      3.19565        -0.005308     -0.000394      0.000394
C     10.36130      6.23546      4.25374        -0.004050      0.001671     -0.001671
C      7.29355     10.40378      3.19565        -0.000394     -0.005308      0.000394
C      6.23546     10.36130      4.25374         0.001671     -0.004050     -0.001671
C      7.29355      0.08542      7.29355        -0.000394      0.005308     -0.000394
C      6.23546      0.12790      6.23546         0.001671      0.004050      0.001671
C      3.19565      0.08542      3.19565         0.000394      0.005308      0.000394
C      4.25374      0.12790      4.25374        -0.001671      0.004050     -0.001671
C      3.19565     10.40378      7.29355         0.000394     -0.005308     -0.000394
C      4.25374     10.36130      6.23546        -0.001671     -0.004050      0.001671
C      3.19565      7.29355     10.40378         0.000394     -0.000394     -0.005308
C      4.25374      6.23546     10.36130        -0.001671      0.001671     -0.004050
C      7.29355      7.29355      0.08542        -0.000394     -0.000394      0.005308
C      6.23546      6.23546      0.12790         0.001671      0.001671      0.004050
C      3.19565      3.19565      0.08542         0.000394      0.000394      0.005308
C      4.25374      4.25374      0.12790        -0.001671     -0.001671      0.004050
C      7.29355      3.19565     10.40378        -0.000394      0.000394     -0.005308
C      6.23546      4.25374     10.36130         0.001671     -0.001671     -0.004050
O     10.43166      3.58149      8.51411        -0.003020      0.008189      0.011233
O     10.54674     17.39691      8.51411         0.003020     -0.008189      0.011233
O     10.54674      3.58149     12.46429         0.003020      0.008189     -0.011233
O     10.43166     17.39691     12.46429        -0.003020     -0.008189     -0.011233
O      8.51411     10.43166      3.58149         0.011233     -0.003020      0.008189
O      8.51411     10.54674     17.39691         0.011233      0.003020     -0.008189
O     12.46429     10.54674      3.58149        -0.011233      0.003020      0.008189
O     12.46429     10.43166     17.39691        -0.011233     -0.003020     -0.008189
O      3.58149      8.51411     10.43166         0.008189      0.011233     -0.003020
O     17.39691      8.51411     10.54674        -0.008189      0.011233      0.003020
O      3.58149     12.46429     10.54674         0.008189     -0.011233      0.003020
O     17.39691     12.46429     10.43166        -0.008189     -0.011233     -0.003020
O      3.58149     10.43166      8.51411         0.008189     -0.003020      0.011233
O     17.39691     10.54674      8.51411        -0.008189      0.003020      0.011233
O      3.58149     10.54674     12.46429         0.008189      0.003020     -0.011233
O     17.39691     10.43166     12.46429        -0.008189     -0.003020     -0.011233
O     10.43166      8.51411      3.58149        -0.003020      0.011233      0.008189
O     10.54674      8.51411     17.39691         0.003020      0.011233     -0.008189
O     10.54674     12.46429      3.58149         0.003020     -0.011233      0.008189
O     10.43166     12.46429     17.39691        -0.003020     -0.011233     -0.008189
O      8.51411      3.58149     10.43166         0.011233      0.008189     -0.003020
O      8.51411     17.39691     10.54674         0.011233     -0.008189      0.003020
O     12.46429      3.58149     10.54674        -0.011233      0.008189      0.003020
O     12.46429     17.39691     10.43166        -0.011233     -0.008189     -0.003020
O     11.89606     11.89606     19.57154        -0.023820     -0.023820      0.023820
O     19.57154     19.57154     19.57154         0.023820      0.023820      0.023820
O     19.57154     11.89606     11.89606         0.023820     -0.023820     -0.023820
O     11.89606     19.57154     11.89606        -0.023820      0.023820     -0.023820
O      9.44729      1.04191      9.44729        -0.002592      0.002592     -0.002592
O      1.04191      9.44729      9.44729         0.002592     -0.002592     -0.002592
O      1.04191      1.04191      1.04191         0.002592      0.002592      0.002592
O      9.44729      9.44729      1.04191        -0.002592     -0.002592      0.002592
Zr     10.48920      2.52680     10.48920        -0.000000      0.018427      0.000000
Zr     10.48920     18.45160     10.48920        -0.000000     -0.018427      0.000000
Zr     10.48920     10.48920      2.52680        -0.000000     -0.000000      0.018427
Zr     10.48920     10.48920     18.45160        -0.000000     -0.000000     -0.018427
Zr      2.52680     10.48920     10.48920         0.018427     -0.000000      0.000000
Zr     18.45160     10.48920     10.48920        -0.018427     -0.000000      0.000000
