152
# total energy = -1005.96029842 eVH     10.35389      5.87395      7.64558         0.218426      0.046548      0.619295
H     10.62451     15.10445      7.64558        -0.105521     -0.149328      0.533080
H     10.62451      5.87395     13.33282         0.493845      0.122962     -0.599097
H     10.35389     15.10445     13.33282         0.064105     -0.185212     -0.534062
H      7.64558     10.35389      5.87395         0.365352      0.030842      0.173344
H      7.64558     10.62451     15.10445         0.683839      0.468198     -0.044062
H     13.33282     10.62451      5.87395        -0.517771      0.402401      0.076904
H     13.33282     10.35389     15.10445        -0.790271     -0.083807     -0.007939
H      5.87395      7.64558     10.35389         0.271526      0.963054     -0.122401
H     15.10445      7.64558     10.62451        -0.099482      0.484125      0.279882
H      5.87395     13.33282     10.62451         0.153757     -0.695422     -0.167138
H     15.10445     13.33282     10.35389        -0.005319     -1.049087     -0.320808
H      5.87395     10.35389      7.64558         0.237467      0.057787      0.518948
H     15.10445     10.62451      7.64558        -0.117738      0.417008      0.785438
H      5.87395     10.62451     13.33282         0.146939      0.348158     -0.687091
H     15.10445     10.35389     13.33282        -0.042845     -0.063903     -0.699584
H     10.35389      7.64558      5.87395         0.331322      1.081632      0.007810
H     10.62451      7.64558     15.10445         0.526586      0.530527     -0.117009
H     10.62451     13.33282      5.87395        -0.404481     -0.829935      0.202045
H     10.35389     13.33282     15.10445        -0.040274     -0.432368     -0.220000
H      7.64558      5.87395     10.35389         0.852358      0.075379     -0.266353
H      7.64558     15.10445     10.62451         0.824776     -0.203744     -0.011307
H     13.33282      5.87395     10.62451        -0.781464      0.186936      0.593065
H     13.33282     15.10445     10.35389        -0.434080     -0.104465     -0.132269
H     12.45634     12.45634     19.01126         0.236620      0.269792     -0.239659
H     19.01126     19.01126     19.01126        -0.261140     -0.240961     -0.261964
H     19.01126     12.45634     12.45634        -0.267709      0.267454      0.220747
H     12.45634     19.01126     12.45634         0.233200     -0.258794      0.274242
C     10.35284      5.61067      6.59456        -0.410525     -0.675952      0.072085
C     10.62556     15.36773      6.59456         0.067733      0.364597     -0.309893
C     10.62556      5.61067     14.38384        -0.329854     -0.387161     -0.271861
C     10.35284     15.36773     14.38384        -0.004599      0.317494      0.530775
C      6.59456     10.35284      5.61067        -0.333108     -0.004085     -0.274524
C      6.59456     10.62556     15.36773        -0.239259     -0.216790      0.782846
C     14.38384     10.62556      5.61067        -0.217129     -0.397301     -0.528289
C     14.38384     10.35284     15.36773         0.960739     -0.069766      0.244006
C      5.61067      6.59456     10.35284        -0.544453     -0.045727     -0.146381
C     15.36773      6.59456     10.62556         0.549403      0.002302     -0.248257
C      5.61067     14.38384     10.62556        -0.308144      0.981763      0.078790
C     15.36773     14.38384     10.35284         0.279356      1.048239      0.053075
C      5.61067     10.35284      6.59456        -0.208552     -0.098868     -0.611720
C     15.36773     10.62556      6.59456         0.435960     -0.257314      0.114925
C      5.61067     10.62556     14.38384        -0.674159     -0.348481     -0.117721
C     15.36773     10.35284     14.38384         0.385717     -0.062668      1.023383
C     10.35284      6.59456      5.61067        -0.221124     -0.394081     -0.630289
C     10.62556      6.59456     15.36773        -0.267135      0.140092      0.454091
C     10.62556     14.38384      5.61067         0.206225      1.054253     -0.336480
C     10.35284     14.38384     15.36773         0.008349      0.556508      0.411704
C      6.59456      5.61067     10.35284        -0.071905     -0.872003      0.277852
C      6.59456     15.36773     10.62556        -0.998788      0.270401      0.082271
C     14.38384      5.61067     10.62556         0.473776     -0.545311     -0.375811
C     14.38384     15.36773     10.35284         0.214594      0.453792     -0.091609
C     10.40319      3.19606      7.29314         0.016352      0.666173     -0.484787
C     10.35913      4.25547      6.23373         0.089253     -0.669399      0.008792
C      0.08601      7.29314      7.29314        -0.043111     -0.407770     -0.323937
C      0.13007      6.23373      6.23373        -0.025054      0.097495      0.569714
C      0.08601      3.19606      3.19606        -0.005390      1.305252      0.286786
C      0.13007      4.25547      4.25547         0.051820     -0.778988     -0.168843
C     10.40319      7.29314      3.19606         0.011653     -0.312554      0.308157
C     10.35913      6.23373      4.25547         0.023124      0.017135     -0.793850
C      7.29314     10.40319      3.19606        -0.290598      0.021855      0.560538
C      6.23373     10.35913      4.25547         0.178416      0.059648     -0.075885
C      7.29314      0.08601      7.29314        -0.504712     -0.066201     -0.377468
C      6.23373      0.13007      6.23373         0.679814     -0.063511      0.472366
C      3.19606      0.08601      3.19606         0.796742     -0.030090      0.581559
C      4.25547      0.13007      4.25547        -0.590621     -0.087806     -0.539178
C      3.19606     10.40319      7.29314         0.472490     -0.009419     -0.738547
C      4.25547     10.35913      6.23373        -0.316650      0.070984      0.191675
C      3.19606      7.29314     10.40319         0.298599     -1.295150      0.047491
C      4.25547      6.23373     10.35913        -0.889155      0.107145      0.135893
C      7.29314      7.29314      0.08601        -0.409317     -0.379299     -0.024868
C      6.23373      6.23373      0.13007         0.454163      0.221329     -0.010606
C      3.19606      3.19606      0.08601         0.481368      0.372993     -0.042082
C      4.25547      4.25547      0.13007        -0.154601     -0.646052     -0.036559
C      7.29314      3.19606     10.40319        -0.334372      0.449520      0.073378
C      6.23373      4.25547     10.35913         0.309771     -0.678518      0.149320
O     10.43466      3.58206      8.50569        -0.015984      0.110181      0.507683
O     10.54374     17.39634      8.50569         0.034352     -0.175664      0.495235
O     10.54374      3.58206     12.47271         0.049743     -0.097768     -0.178792
O     10.43466     17.39634     12.47271        -0.039180     -0.184201     -0.527300
O      8.50569     10.43466      3.58206         0.285805     -0.010444      0.019807
O      8.50569     10.54374     17.39634         0.621095      0.037022     -0.143553
O     12.47271     10.54374      3.58206        -0.746965      0.088252      0.095657
O     12.47271     10.43466     17.39634        -0.440605      0.022310     -0.109969
O      3.58206      8.50569     10.43466         0.161175      1.046926     -0.033603
O     17.39634      8.50569     10.54374        -0.160946      0.543875      0.076437
O      3.58206     12.47271     10.54374         0.088198     -0.373859      0.050923
O     17.39634     12.47271     10.43466        -0.156071     -0.545384     -0.022998
O      3.58206     10.43466      8.50569         0.081889     -0.070408      0.583889
O     17.39634     10.54374      8.50569        -0.112056      0.067178      0.528955
O      3.58206     10.54374     12.47271         0.024668      0.042262     -0.512270
O     17.39634     10.43466     12.47271        -0.227100     -0.039299     -0.618857
O     10.43466      8.50569      3.58206        -0.038874      0.444026      0.139045
O     10.54374      8.50569     17.39634         0.051282      0.534574     -0.157739
O     10.54374     12.47271      3.58206         0.013802     -1.035885      0.190782
O     10.43466     12.47271     17.39634         0.038191     -0.710240     -0.172910
O      8.50569      3.58206     10.43466         0.519084      0.147904     -0.055757
O      8.50569     17.39634     10.54374         0.486094     -0.194634      0.014811
O     12.47271      3.58206     10.54374        -0.624507      0.223882      0.009230
O     12.47271     17.39634     10.43466        -0.231156      0.064156     -0.050073
O     11.90042     11.90042     19.56718        -0.240985     -0.288909      0.249195
O     19.56718     19.56718     19.56718         0.310175      0.295501      0.303077
O     19.56718     11.90042     11.90042         0.295383     -0.263906     -0.233093
O     11.90042     19.56718     11.90042        -0.240511      0.292751     -0.322920
O      9.45224      1.03696      9.45224        -0.017869      0.089840     -0.072138
O      1.03696      9.45224      9.45224         0.092710     -0.090917     -0.131490
O      1.03696      1.03696      1.03696         0.094395      0.187947      0.052414
O      9.45224      9.45224      1.03696        -0.106689     -0.106593      0.036496
Zr     10.48920      2.52580     10.48920        -0.128700     -0.285423     -0.035629
Zr     10.48920     18.45260     10.48920        -0.070850      0.214311      0.067814
Zr     10.48920     10.48920      2.52580        -0.013590     -0.401964     -0.266799
Zr     10.48920     10.48920     18.45260        -0.274824     -0.097370      0.317695
Zr      2.52580     10.48920     10.48920        -0.384463      0.236231      0.261249
Zr     18.45260     10.48920     10.48920         0.234684      0.000405     -0.218724
Pd     13.58044      8.92840      9.26173         0.006982      0.008848     -0.006625
Pd      5.63900      9.87190     10.16934        -0.003178      0.009415     -0.010367
Pd      6.79160     11.85565     11.68248        -0.005497      0.002433      0.005741
Pd     12.10213     13.02488      7.34535        -0.003955      0.000755      0.006314
Pd     11.90219      7.74740      7.43553         0.000008      0.003468      0.004678
Pd      8.30470      6.92113      6.59583         0.001091     -0.008278     -0.003819
Pd     10.71258     11.18353      5.62805        -0.001256      0.000464      0.001990
Pd     14.42094      8.55274      6.77409         0.001316     -0.001450     -0.004384
Pd      9.69358     11.74901      8.08331        -0.005312     -0.001918      0.003799
Pd      6.77111      6.80867     12.31003         0.006967     -0.004147      0.000154
Pd      6.47831      7.88339      8.19814         0.006430      0.021317     -0.023753
Pd      6.53204      8.50200     14.34354         0.005188      0.002476     -0.004541
Pd     11.50483      6.51731      9.87683        -0.004339     -0.002511      0.005350
Pd      9.56380      9.22983      7.12315        -0.006286     -0.002257     -0.000328
Pd      8.99493     13.99886      9.29619        -0.002585     -0.004563      0.009464
Pd      9.51414      7.36474     11.73219        -0.008663      0.000191     -0.001696
Pd     10.59183      8.99114      9.67809         0.000388     -0.003980     -0.000747
Pd      9.33228     11.52726     10.66257        -0.000918     -0.003909      0.005956
Pd      8.91486      7.03816      9.15951        -0.004626     -0.001372     -0.003225
Pd      8.55240      6.56954     14.23830         0.003682      0.012484      0.006533
Pd      7.67887      9.33112     11.95128        -0.002848      0.003291      0.002225
Pd     11.99763     10.39393      7.74944        -0.006330      0.002301      0.002243
Pd      7.14229     12.02402      9.03149        -0.002682     -0.003185      0.005590
Pd      8.09671      9.59345      9.30827         0.002138     -0.002176      0.006240
Pd     14.02849      6.46901      8.50267        -0.001002      0.004447      0.004067
Pd     12.54129      8.34225     11.60400         0.008639      0.003353     -0.008194
Pd      8.76755     11.58584     13.39210        -0.001624     -0.001043      0.001496
Pd     13.90828     11.95292      8.96280        -0.003691     -0.002879      0.004503
Pd     12.95092     10.66794     13.04796        -0.002039      0.000414      0.003125
Pd     14.79574     10.43816     11.08913        -0.000360     -0.000033      0.004437
Pd     12.09216     10.87995     10.51724        -0.004388     -0.001384      0.004800
Pd     11.44833     13.32673      9.90569        -0.001879     -0.000821      0.004956
Pd     13.60430     12.91156     11.62609        -0.001506     -0.000977      0.003648
Pd     11.12486     12.59547     12.51481        -0.003963      0.002196     -0.000650
Pd     10.95370     11.05008     14.80314         0.002226      0.017008      0.001450
Pd     10.49508      9.77130     12.36570         0.002602     -0.008449      0.005959
Pd      9.07932      9.13657     14.39743         0.005902      0.011165      0.013612
Pd      8.84163     13.84460     11.98345        -0.010553     -0.001846      0.008130
