152
# total energy = -1024.05613542 eVH     10.35389      5.87395      7.64558         0.550756      0.066428      0.795385
H     10.62451     15.10445      7.64558         0.001282     -0.163038      0.557368
H     10.62451      5.87395     13.33282         0.143507      0.158445     -0.654774
H     10.35389     15.10445     13.33282        -0.310377     -0.061884     -0.708789
H      7.64558     10.35389      5.87395         0.317965     -0.014251      0.188244
H      7.64558     10.62451     15.10445         1.026927     -0.378816      0.005332
H     13.33282     10.62451      5.87395        -0.754408     -0.003719      0.182550
H     13.33282     10.35389     15.10445        -0.833205     -0.342494      0.157944
H      5.87395      7.64558     10.35389         0.208203      0.715250     -0.054756
H     15.10445      7.64558     10.62451        -0.146428      0.401209     -0.043143
H      5.87395     13.33282     10.62451         0.177313     -0.493318     -0.081328
H     15.10445     13.33282     10.35389        -0.113290     -1.075062      0.033759
H      5.87395     10.35389      7.64558         0.149209      0.103325      0.454298
H     15.10445     10.62451      7.64558         0.063131      0.112322      1.092871
H      5.87395     10.62451     13.33282         0.104110     -0.030573     -0.380910
H     15.10445     10.35389     13.33282        -0.077629     -0.136352     -0.632473
H     10.35389      7.64558      5.87395         0.063705      0.865961      0.215843
H     10.62451      7.64558     15.10445         0.016155      0.289600     -0.176118
H     10.62451     13.33282      5.87395        -0.049643     -0.554375      0.251659
H     10.35389     13.33282     15.10445        -0.517873     -0.724392     -0.048560
H      7.64558      5.87395     10.35389         0.456129      0.116200      0.048266
H      7.64558     15.10445     10.62451         0.811088     -0.288588      0.060051
H     13.33282      5.87395     10.62451        -0.498904      0.169570     -0.066031
H     13.33282     15.10445     10.35389        -0.631952     -0.054586      0.179241
H     12.45634     12.45634     19.01126         0.240786      0.280053     -0.229560
H     19.01126     19.01126     19.01126        -0.254010     -0.238329     -0.251511
H     19.01126     12.45634     12.45634        -0.251458      0.273085      0.224735
H     12.45634     19.01126     12.45634         0.227673     -0.263465      0.243071
C     10.35284      5.61067      6.59456        -0.176820     -0.582366      0.060481
C     10.62556     15.36773      6.59456         0.012607      0.425070     -0.761181
C     10.62556      5.61067     14.38384        -0.048689     -0.107153      0.781724
C     10.35284     15.36773     14.38384         0.102434      0.704922      0.262502
C      6.59456     10.35284      5.61067        -0.382221     -0.031541     -0.236103
C      6.59456     10.62556     15.36773        -1.091497      0.420312      0.402267
C     14.38384     10.62556      5.61067         0.401738      0.290022     -0.589199
C     14.38384     10.35284     15.36773         1.000604     -0.049257      0.415014
C      5.61067      6.59456     10.35284        -0.374434     -0.486184      0.278235
C     15.36773      6.59456     10.62556         0.178428     -0.518697      0.030216
C      5.61067     14.38384     10.62556        -0.123820      0.496937     -0.002873
C     15.36773     14.38384     10.35284         0.351105     -0.086165     -0.154711
C      5.61067     10.35284      6.59456        -0.269077     -0.047628     -0.809935
C     15.36773     10.62556      6.59456         0.691065     -0.322437     -1.176111
C      5.61067     10.62556     14.38384        -0.553277     -0.020248      0.180424
C     15.36773     10.35284     14.38384         0.663916     -0.127115      1.145028
C     10.35284      6.59456      5.61067        -0.269894     -0.435449     -0.767890
C     10.62556      6.59456     15.36773         0.049555     -0.285725      0.125470
C     10.62556     14.38384      5.61067         0.150392      1.115585     -0.413271
C     10.35284     14.38384     15.36773         0.197595      0.248052      0.668711
C      6.59456      5.61067     10.35284        -0.312585     -0.777547      0.055307
C      6.59456     15.36773     10.62556        -1.308008      0.335139      0.052003
C     14.38384      5.61067     10.62556         0.733001     -0.247275      0.015628
C     14.38384     15.36773     10.35284        -0.539125      0.709853     -0.316125
C     10.40319      3.19606      7.29314        -0.003780      0.876555     -0.392215
C     10.35913      4.25547      6.23373         0.035347     -0.524655      0.553311
C      0.08601      7.29314      7.29314        -0.006704     -0.465683     -0.403970
C      0.13007      6.23373      6.23373        -0.012670      0.027619      0.097973
C      0.08601      3.19606      3.19606        -0.019052      0.943828      0.184718
C      0.13007      4.25547      4.25547        -0.068109     -0.203646     -0.245918
C     10.40319      7.29314      3.19606        -0.007659     -0.916215      0.470401
C     10.35913      6.23373      4.25547         0.020652      0.438086     -0.641965
C      7.29314     10.40319      3.19606        -0.438991      0.041647      0.833888
C      6.23373     10.35913      4.25547         0.246601      0.089798     -0.116308
C      7.29314      0.08601      7.29314        -0.443999     -0.023832     -0.268509
C      6.23373      0.13007      6.23373         0.431694     -0.066015      0.486363
C      3.19606      0.08601      3.19606         0.738026     -0.017837      0.399059
C      4.25547      0.13007      4.25547        -0.107851     -0.053555     -0.437934
C      3.19606     10.40319      7.29314         0.686925     -0.002708     -0.683922
C      4.25547     10.35913      6.23373        -0.246067      0.106528      0.223330
C      3.19606      7.29314     10.40319         0.503035     -1.287802     -0.031035
C      4.25547      6.23373     10.35913        -0.426262      0.846808      0.047951
C      7.29314      7.29314      0.08601        -0.553487     -0.235204     -0.014313
C      6.23373      6.23373      0.13007         0.171932      0.142522     -0.015040
C      3.19606      3.19606      0.08601         0.243351      0.307366     -0.023664
C      4.25547      4.25547      0.13007        -0.070195     -0.045323      0.017578
C      7.29314      3.19606     10.40319        -0.358947      0.724446      0.018166
C      6.23373      4.25547     10.35913         1.116195      0.072682      0.009682
O     10.43466      3.58206      8.50569        -0.033388      0.038143      0.435622
O     10.54374     17.39634      8.50569        -0.023334     -0.101405      0.476174
O     10.54374      3.58206     12.47271         0.051973     -0.021898     -0.208226
O     10.43466     17.39634     12.47271        -0.046582     -0.074652     -0.540856
O      8.50569     10.43466      3.58206         0.395995     -0.014773     -0.013922
O      8.50569     10.54374     17.39634         0.551140      0.027517     -0.159419
O     12.47271     10.54374      3.58206        -0.654495     -0.024141      0.159727
O     12.47271     10.43466     17.39634        -0.634935     -0.027577     -0.087179
O      3.58206      8.50569     10.43466         0.175555      1.111774     -0.001914
O     17.39634      8.50569     10.54374        -0.042142      0.368815      0.073331
O      3.58206     12.47271     10.54374         0.078232     -0.483854      0.031425
O     17.39634     12.47271     10.43466        -0.161199     -0.722760      0.014229
O      3.58206     10.43466      8.50569        -0.004321     -0.067676      0.553546
O     17.39634     10.54374      8.50569        -0.111642      0.040645      0.396453
O      3.58206     10.54374     12.47271         0.038289      0.011311     -0.406936
O     17.39634     10.43466     12.47271        -0.215339      0.021773     -0.725398
O     10.43466      8.50569      3.58206         0.083072      0.817347      0.195342
O     10.54374      8.50569     17.39634         0.070353      0.627422     -0.134705
O     10.54374     12.47271      3.58206        -0.042117     -0.916784      0.246210
O     10.43466     12.47271     17.39634         0.009243     -0.947756     -0.220364
O      8.50569      3.58206     10.43466         0.512970      0.088845     -0.022724
O      8.50569     17.39634     10.54374         0.628495     -0.245188     -0.038113
O     12.47271      3.58206     10.54374        -0.449869      0.135335      0.053481
O     12.47271     17.39634     10.43466        -0.416678      0.030610     -0.017254
O     11.90042     11.90042     19.56718        -0.266821     -0.333480      0.251521
O     19.56718     19.56718     19.56718         0.287369      0.272112      0.298056
O     19.56718     11.90042     11.90042         0.278244     -0.318225     -0.209253
O     11.90042     19.56718     11.90042        -0.273173      0.290460     -0.262359
O      9.45224      1.03696      9.45224        -0.078530      0.048575     -0.059418
O      1.03696      9.45224      9.45224         0.054516     -0.156819     -0.099908
O      1.03696      1.03696      1.03696         0.015319      0.072116      0.192287
O      9.45224      9.45224      1.03696        -0.055055     -0.082962      0.135363
Zr     10.48920      2.52580     10.48920        -0.026270     -0.080721     -0.136932
Zr     10.48920     18.45260     10.48920         0.093452      0.256700      0.015631
Zr     10.48920     10.48920      2.52580         0.011026     -0.128784     -0.524951
Zr     10.48920     10.48920     18.45260        -0.195853      0.031583      0.466420
Zr      2.52580     10.48920     10.48920        -0.393145      0.269882      0.109229
Zr     18.45260     10.48920     10.48920         0.206414      0.055026     -0.291035
Pd      8.61176      9.87414     13.36812        -0.003579      0.056175     -0.129526
Pd     10.53330      9.54824     10.31613        -0.005217     -0.058286      0.124710
Pd     13.46144      8.74213     12.53424         0.028582      0.013520     -0.034530
Pd     10.76885     10.66759     15.11526        -0.131687     -0.038273      0.055272
Pd     13.01145     11.29890     13.39990        -0.024288      0.044416     -0.028254
Pd     14.98686     10.76111     11.27241         0.009958      0.005252      0.083874
Pd      6.67426      7.91904     12.51512         0.120018      0.005794      0.053907
Pd      9.29325      7.21827      9.66934        -0.076998     -0.068387     -0.072020
Pd      9.36616      7.47202     12.42126        -0.020690      0.015016     -0.013079
Pd     11.70381      7.27370     11.17739        -0.040759     -0.030547     -0.110004
Pd     11.70109      7.79557      8.51186         0.005998      0.055529     -0.066603
Pd      7.28033     11.72553     11.63416        -0.043058     -0.032801      0.003703
Pd      9.27615     14.56397      9.54607         0.070715     -0.181945     -0.155945
Pd      8.07459     12.39475     14.24214         0.125450     -0.041351     -0.031900
Pd     14.16086     14.19622      8.33447         0.002098      0.057299     -0.001373
Pd     11.64676     13.45683      8.88780         0.062508     -0.045001     -0.025916
Pd     14.08457     11.63514      8.92852        -0.052143     -0.022556     -0.035573
Pd      8.75485     13.90435     12.22337        -0.004064      0.070402     -0.108231
Pd     12.18565     13.74772     14.06859         0.003755      0.153334      0.026099
Pd     11.39188     14.07801     11.47517         0.062200      0.089759     -0.008862
Pd     14.03822     13.52422     12.16553         0.009211     -0.157966      0.001015
Pd     12.37173     11.66880     10.90368        -0.098347      0.002323      0.005409
Pd     12.79023     12.61554      6.64579         0.002523      0.032272      0.013208
Pd     13.95465      8.90233      7.68096        -0.019664      0.012443      0.002455
Pd      7.00693      8.41519      8.58929        -0.034669      0.036370     -0.042408
Pd      5.63569     10.08139     10.28690        -0.018602     -0.086924     -0.059021
Pd      9.42450      9.33452      7.70132        -0.090254      0.021706     -0.071566
Pd      8.48110      6.85192      7.05537         0.021591      0.107132      0.037632
Pd      9.72877     12.00456     10.53832         0.049682     -0.092680      0.136362
Pd     11.66397     10.71964      8.19977        -0.048031      0.026541      0.008507
Pd     11.71669      9.02062      6.09034        -0.068105      0.035398      0.019591
Pd     10.23409     11.29645      5.98011         0.026340      0.027306     -0.114295
Ir     11.05644      9.53527     12.77984         0.027927     -0.022987     -0.000261
Ir     13.17284      9.34597     10.05312         0.054373      0.034560      0.037538
Ir     10.46056     12.01040     12.94461         0.083636     -0.010349     -0.071237
Ir      7.80591     10.92632      9.10399        -0.058074      0.112311     -0.018716
Ir      9.35439     12.38278      8.06706        -0.044185     -0.063916     -0.055315
Ir      8.09904      9.24496     10.89971         0.067337     -0.052149      0.026274
