152
# total energy = -1093.14879110 eVH     10.35389      5.87395      7.64558         0.038355     -0.116811      1.245593
H     10.62451     15.10445      7.64558        -0.199190      0.079431      1.400873
H     10.62451      5.87395     13.33282         0.139711     -0.042823     -1.095115
H     10.35389     15.10445     13.33282         0.023806     -0.045618     -0.888448
H      7.64558     10.35389      5.87395         0.514111      0.023810     -0.082597
H      7.64558     10.62451     15.10445         0.400997     -0.000867      0.002744
H     13.33282     10.62451      5.87395        -0.665275     -0.036609      0.004477
H     13.33282     10.35389     15.10445        -0.430971     -0.009494     -0.010483
H      5.87395      7.64558     10.35389        -0.143539      1.354342      0.060472
H     15.10445      7.64558     10.62451        -0.014390      0.468354      0.033408
H      5.87395     13.33282     10.62451        -0.070445     -0.229473      0.036522
H     15.10445     13.33282     10.35389         0.201921     -1.565772      0.116730
H      5.87395     10.35389      7.64558        -0.098906     -0.716614      0.489385
H     15.10445     10.62451      7.64558         0.460123      0.816669      0.170609
H      5.87395     10.62451     13.33282        -0.017979     -0.193042     -0.270934
H     15.10445     10.35389     13.33282        -0.063090      0.227525     -0.155784
H     10.35389      7.64558      5.87395        -0.141111      0.417785      0.057042
H     10.62451      7.64558     15.10445         0.047166      0.518508      0.267935
H     10.62451     13.33282      5.87395         0.057570     -0.428435     -0.187424
H     10.35389     13.33282     15.10445        -0.146724     -0.545205      0.191836
H      7.64558      5.87395     10.35389         0.477513     -0.032650     -0.046355
H      7.64558     15.10445     10.62451         0.299061      0.026282     -0.029227
H     13.33282      5.87395     10.62451        -0.198993     -0.086668     -0.011403
H     13.33282     15.10445     10.35389        -0.508265      0.105109     -0.022274
H     12.45634     12.45634     19.01126         0.265251      0.246858     -0.244583
H     19.01126     19.01126     19.01126        -0.262769     -0.242949     -0.252170
H     19.01126     12.45634     12.45634        -0.264734      0.262370      0.232865
H     12.45634     19.01126     12.45634         0.274081     -0.255104      0.226474
C     10.35284      5.61067      6.59456        -0.178257     -0.298194     -1.776202
C     10.62556     15.36773      6.59456         0.453117      0.114406     -1.863118
C     10.62556      5.61067     14.38384        -0.343922     -0.126378      1.705175
C     10.35284     15.36773     14.38384         0.240805      0.150219      1.646296
C      6.59456     10.35284      5.61067        -0.907112     -0.113576     -0.310507
C      6.59456     10.62556     15.36773        -0.818953     -0.007481      0.111110
C     14.38384     10.62556      5.61067         1.025558      0.036591     -0.228798
C     14.38384     10.35284     15.36773         0.777807     -0.020201      0.174378
C      5.61067      6.59456     10.35284        -0.082885     -1.641847      0.057574
C     15.36773      6.59456     10.62556         0.301215     -0.931338      0.035801
C      5.61067     14.38384     10.62556        -0.408156      0.781909      0.037189
C     15.36773     14.38384     10.35284         0.047631      1.824675     -0.081444
C      5.61067     10.35284      6.59456        -0.734872      0.258641     -1.825965
C     15.36773     10.62556      6.59456         0.747209     -0.212455     -1.962291
C      5.61067     10.62556     14.38384        -0.672479      0.093069      1.644344
C     15.36773     10.35284     14.38384         0.576722     -0.064483      1.417497
C     10.35284      6.59456      5.61067         0.031018     -1.570009     -0.764287
C     10.62556      6.59456     15.36773        -0.046658     -1.885045      0.721455
C     10.62556     14.38384      5.61067         0.090057      1.825009     -0.847961
C     10.35284     14.38384     15.36773         0.034965      1.862526      0.635686
C      6.59456      5.61067     10.35284        -0.849788     -0.823214     -0.031906
C      6.59456     15.36773     10.62556        -1.026737      0.565684      0.069166
C     14.38384      5.61067     10.62556         0.976152     -0.709075      0.089107
C     14.38384     15.36773     10.35284         0.885866      0.911251      0.004190
C     10.40319      3.19606      7.29314        -0.004992      0.534559     -0.565433
C     10.35913      4.25547      6.23373        -0.013285     -0.835993      0.529622
C      0.08601      7.29314      7.29314         0.015800     -0.460670     -0.573758
C      0.13007      6.23373      6.23373         0.055122      0.855203      0.442807
C      0.08601      3.19606      3.19606         0.026360      0.687768      0.452697
C      0.13007      4.25547      4.25547        -0.042675     -0.740079     -0.487758
C     10.40319      7.29314      3.19606        -0.013519     -0.771871      0.481911
C     10.35913      6.23373      4.25547         0.013103      0.572933     -0.509625
C      7.29314     10.40319      3.19606        -0.308082     -0.007321      0.521097
C      6.23373     10.35913      4.25547         0.184650     -0.076318     -0.157025
C      7.29314      0.08601      7.29314        -0.246466     -0.031548     -0.391250
C      6.23373      0.13007      6.23373         0.153688     -0.096565      0.373120
C      3.19606      0.08601      3.19606         0.407992      0.011605      0.461598
C      4.25547      0.13007      4.25547        -0.199953      0.070661     -0.208076
C      3.19606     10.40319      7.29314         0.230114      0.031059     -0.484784
C      4.25547     10.35913      6.23373        -0.179900      0.108627      0.358947
C      3.19606      7.29314     10.40319         0.176722     -0.316194      0.005699
C      4.25547      6.23373     10.35913        -0.583120      0.183889      0.052655
C      7.29314      7.29314      0.08601        -0.586217     -0.466450      0.003067
C      6.23373      6.23373      0.13007         0.119307      0.203753     -0.058369
C      3.19606      3.19606      0.08601         0.561140      0.444921      0.002887
C      4.25547      4.25547      0.13007        -0.063600     -0.100007     -0.032827
C      7.29314      3.19606     10.40319        -0.216252      0.350598      0.005628
C      6.23373      4.25547     10.35913         0.616399     -0.253241      0.017341
O     10.43466      3.58206      8.50569         0.015471      0.234439      0.491695
O     10.54374     17.39634      8.50569        -0.029475     -0.239723      0.515774
O     10.54374      3.58206     12.47271         0.080308      0.158472     -0.388981
O     10.43466     17.39634     12.47271        -0.103618     -0.130363     -0.362837
O      8.50569     10.43466      3.58206         0.408253     -0.021208      0.072400
O      8.50569     10.54374     17.39634         0.461668      0.059592     -0.122518
O     12.47271     10.54374      3.58206        -0.503828     -0.009966      0.104613
O     12.47271     10.43466     17.39634        -0.426458     -0.052726     -0.110094
O      3.58206      8.50569     10.43466         0.168244      0.422985     -0.053135
O     17.39634      8.50569     10.54374        -0.087959      0.563216      0.047091
O      3.58206     12.47271     10.54374         0.049207     -0.526732      0.040333
O     17.39634     12.47271     10.43466        -0.177432     -0.458780     -0.023265
O      3.58206     10.43466      8.50569         0.181639     -0.016037      0.484335
O     17.39634     10.54374      8.50569        -0.126255     -0.010876      0.459086
O      3.58206     10.54374     12.47271         0.175644      0.087706     -0.467633
O     17.39634     10.43466     12.47271        -0.195548     -0.079686     -0.538669
O     10.43466      8.50569      3.58206         0.048781      0.641295      0.269680
O     10.54374      8.50569     17.39634         0.056496      0.489813     -0.208766
O     10.54374     12.47271      3.58206        -0.017595     -0.640912      0.268980
O     10.43466     12.47271     17.39634        -0.032756     -0.530396     -0.224149
O      8.50569      3.58206     10.43466         0.515568      0.150749     -0.030465
O      8.50569     17.39634     10.54374         0.619579     -0.096523      0.044407
O     12.47271      3.58206     10.54374        -0.630263      0.107393      0.031012
O     12.47271     17.39634     10.43466        -0.489184     -0.140345     -0.017173
O     11.90042     11.90042     19.56718        -0.309739     -0.283487      0.270492
O     19.56718     19.56718     19.56718         0.312929      0.271272      0.289496
O     19.56718     11.90042     11.90042         0.321005     -0.309206     -0.236571
O     11.90042     19.56718     11.90042        -0.329811      0.281528     -0.225332
O      9.45224      1.03696      9.45224        -0.035218      0.058838     -0.066237
O      1.03696      9.45224      9.45224         0.032786     -0.080184     -0.059880
O      1.03696      1.03696      1.03696         0.030472      0.050691      0.131240
O      9.45224      9.45224      1.03696        -0.027732     -0.086314      0.132778
Zr     10.48920      2.52580     10.48920        -0.103838     -0.127616     -0.007816
Zr     10.48920     18.45260     10.48920         0.115933      0.188612     -0.100150
Zr     10.48920     10.48920      2.52580        -0.004958      0.100542     -0.321425
Zr     10.48920     10.48920     18.45260        -0.025887     -0.019295      0.147563
Zr      2.52580     10.48920     10.48920        -0.040082     -0.027989     -0.054852
Zr     18.45260     10.48920     10.48920         0.100315      0.108513     -0.142371
Pd     12.95286      8.08742      7.63722        -0.034689     -0.006287     -0.007797
Pd      9.57389     14.57245     11.76079        -0.003309      0.002409     -0.007204
Pd     12.32368     10.88784     10.42346        -0.008494     -0.000884     -0.015652
Pd     14.64897      9.98299     11.58657         0.017003      0.003130      0.011448
Pd     10.94352      9.31237      6.15168         0.004619      0.028611     -0.015404
Pd      6.91119      8.51511      8.96815        -0.015776      0.018638      0.011506
Ir     10.25476     11.84827     11.75887         0.002151     -0.026090      0.014209
Ir     12.90274      8.28068     10.30872        -0.010662     -0.016464      0.014842
Ir     12.29565     10.98614      7.72867         0.009853      0.000695      0.008134
Ir      9.68965     14.38610      9.17147        -0.024638      0.019750     -0.036291
Ir     10.78682      9.18219     11.70134        -0.015874      0.001672      0.036553
Ir      8.68274     10.07008      7.75830         0.023844      0.030044     -0.010877
Ir     13.86755     12.51276      9.04121        -0.019665     -0.014142      0.014049
Ir     11.97105     13.56981      7.82203        -0.017806     -0.002072     -0.010480
Ir     14.29476      9.89987      9.01719        -0.005883     -0.005294     -0.003324
Ir      9.19609      7.43503     10.37727        -0.007052      0.018252      0.001625
Ir      8.16141     12.75074      7.83833        -0.002856     -0.009643     -0.017556
Ir      9.14585      7.59592      7.81103        -0.028232     -0.014983     -0.036243
Ir     11.86154     13.50005     13.03527        -0.011129      0.003157     -0.012004
Ir     11.38068      6.68574     11.70666        -0.015779     -0.005817     -0.032870
Ir     10.23732     11.81882      9.08263         0.008301     -0.045803     -0.053533
Ir     12.88499      8.31348     12.97071         0.004199      0.006720     -0.014557
Ir     10.80996      9.15298      8.97485         0.007553      0.037995      0.006017
Ir     11.79629     13.57601     10.42007        -0.000377      0.023619     -0.006133
Ir     13.83449     12.60829     11.79143         0.002673     -0.028600     -0.015934
Ir     12.37471     10.97410     13.08238        -0.026822     -0.011042      0.007343
Ir     10.12255     11.71333      6.49277        -0.023138     -0.018458      0.039078
Ir     11.30808      6.57740      9.20221        -0.000520     -0.013583     -0.022552
Ir      7.17517      8.36844     11.78476         0.025989     -0.009662      0.010270
Ir      8.17706     12.71106     10.43886        -0.023722      0.013052     -0.003631
Ir     10.86728      9.26065     14.26083         0.017553     -0.006288      0.001455
Ir      8.08752     12.53821     12.99930         0.002572     -0.002776     -0.034867
Ir      6.57126     11.24576      9.08016        -0.005619      0.022803      0.006223
Ir      8.64574     10.03953     13.04745        -0.008813      0.022797      0.006211
Ir      6.57193     10.92455     11.54568         0.007191     -0.030458     -0.033449
Ir      9.11599      7.46422     13.02606        -0.013041      0.006016      0.014971
Ir     10.19159     11.65216     14.36363         0.006071     -0.026459     -0.028159
Ir      8.70372     10.05708     10.39335        -0.006263      0.029241      0.039100
