152
# total energy = -1004.97680446 eVH     10.35389      5.87395      7.64558         0.091425      0.078324      0.620303
H     10.62451     15.10445      7.64558        -0.110568     -0.154764      0.481820
H     10.62451      5.87395     13.33282         0.468203      0.049674     -0.840706
H     10.35389     15.10445     13.33282         0.030940     -0.158031     -0.439361
H      7.64558     10.35389      5.87395         0.339162      0.028643      0.158943
H      7.64558     10.62451     15.10445         0.962688      0.522108      0.039488
H     13.33282     10.62451      5.87395        -0.537987      0.349100      0.018074
H     13.33282     10.35389     15.10445        -0.940788     -0.201124      0.111144
H      5.87395      7.64558     10.35389         0.291482      1.315393      0.102868
H     15.10445      7.64558     10.62451        -0.102456      0.528918      0.295750
H      5.87395     13.33282     10.62451         0.175547     -0.542609      0.031877
H     15.10445     13.33282     10.35389        -0.027903     -1.022982     -0.290996
H      5.87395     10.35389      7.64558         0.202399      0.040324      0.441178
H     15.10445     10.62451      7.64558        -0.137068      0.591971      0.809324
H      5.87395     10.62451     13.33282        -0.042356      0.560143     -1.285174
H     15.10445     10.35389     13.33282        -0.025798     -0.107397     -0.674689
H     10.35389      7.64558      5.87395         0.184467      1.315985      0.014509
H     10.62451      7.64558     15.10445         0.586784      0.718917     -0.163957
H     10.62451     13.33282      5.87395        -0.364454     -0.776729      0.297943
H     10.35389     13.33282     15.10445        -0.157872     -0.464004     -0.317496
H      7.64558      5.87395     10.35389         0.795220      0.040311     -0.188285
H      7.64558     15.10445     10.62451         0.798424     -0.178583      0.020705
H     13.33282      5.87395     10.62451        -0.638985      0.169081      0.514827
H     13.33282     15.10445     10.35389        -0.427008     -0.096533     -0.142015
H     12.45634     12.45634     19.01126         0.254697      0.271949     -0.229482
H     19.01126     19.01126     19.01126        -0.280218     -0.260136     -0.224038
H     19.01126     12.45634     12.45634        -0.278586      0.260111      0.219302
H     12.45634     19.01126     12.45634         0.239694     -0.266045      0.264270
C     10.35284      5.61067      6.59456        -0.291673     -0.805633     -0.038993
C     10.62556     15.36773      6.59456         0.036513      0.238739     -0.287408
C     10.62556      5.61067     14.38384        -0.091621     -0.457822      0.497582
C     10.35284     15.36773     14.38384         0.015031      0.257862      0.400257
C      6.59456     10.35284      5.61067        -0.358631      0.018397     -0.188690
C      6.59456     10.62556     15.36773        -0.971153      0.162791      0.740102
C     14.38384     10.62556      5.61067         0.152348     -0.384570     -0.731727
C     14.38384     10.35284     15.36773         1.132901     -0.079467      0.183081
C      5.61067      6.59456     10.35284        -0.728154     -0.278476     -0.218797
C     15.36773      6.59456     10.62556         0.579852     -0.044528     -0.335691
C      5.61067     14.38384     10.62556        -0.173735      0.540787      0.010278
C     15.36773     14.38384     10.35284         0.272696      0.975552      0.056080
C      5.61067     10.35284      6.59456        -0.289352      0.019079     -0.790766
C     15.36773     10.62556      6.59456         0.537864     -0.150063      0.156740
C      5.61067     10.62556     14.38384        -0.752081     -0.012854      0.922450
C     15.36773     10.35284     14.38384         0.520659     -0.097875      1.055835
C     10.35284      6.59456      5.61067        -0.058402     -0.874145     -0.586075
C     10.62556      6.59456     15.36773         0.068711     -0.605517      0.492930
C     10.62556     14.38384      5.61067         0.146614      1.172185     -0.285827
C     10.35284     14.38384     15.36773        -0.014871      0.979061      0.491253
C      6.59456      5.61067     10.35284         0.238264     -1.084948      0.346341
C      6.59456     15.36773     10.62556        -0.970030      0.194832      0.090630
C     14.38384      5.61067     10.62556         0.121755     -0.515102     -0.372388
C     14.38384     15.36773     10.35284         0.167784      0.420906     -0.070069
C     10.40319      3.19606      7.29314         0.009893      1.040805     -0.434123
C     10.35913      4.25547      6.23373         0.083927     -0.620468      0.102270
C      0.08601      7.29314      7.29314        -0.033597     -0.981700     -0.167543
C      0.13007      6.23373      6.23373        -0.076821      0.235270      0.364283
C      0.08601      3.19606      3.19606         0.031448      1.371503      0.214916
C      0.13007      4.25547      4.25547        -0.027467     -0.462576     -0.318498
C     10.40319      7.29314      3.19606         0.002349     -0.378916      0.275533
C     10.35913      6.23373      4.25547         0.032690      0.027589     -0.847816
C      7.29314     10.40319      3.19606        -0.260903      0.020973      0.556354
C      6.23373     10.35913      4.25547         0.144764      0.065354     -0.088354
C      7.29314      0.08601      7.29314        -1.110066     -0.087477     -0.261948
C      6.23373      0.13007      6.23373         0.864355     -0.203200      0.372485
C      3.19606      0.08601      3.19606         0.963794     -0.031252      0.542419
C      4.25547      0.13007      4.25547        -0.607968     -0.147241     -0.637566
C      3.19606     10.40319      7.29314         0.617428      0.003303     -0.661200
C      4.25547     10.35913      6.23373        -0.278521      0.095717      0.242582
C      3.19606      7.29314     10.40319         0.337027     -1.117428      0.026531
C      4.25547      6.23373     10.35913        -1.098718      0.044329      0.137142
C      7.29314      7.29314      0.08601        -0.439619     -0.414476     -0.018610
C      6.23373      6.23373      0.13007         0.528257      0.260641      0.021188
C      3.19606      3.19606      0.08601         0.446106      0.345016     -0.037715
C      4.25547      4.25547      0.13007        -0.086775     -0.581762     -0.057043
C      7.29314      3.19606     10.40319        -0.391575      0.491957      0.060322
C      6.23373      4.25547     10.35913         0.290818     -0.763645      0.178859
O     10.43466      3.58206      8.50569        -0.028939      0.006041      0.403020
O     10.54374     17.39634      8.50569         0.071497     -0.035406      0.254599
O     10.54374      3.58206     12.47271         0.019344     -0.110133     -0.114844
O     10.43466     17.39634     12.47271        -0.031378     -0.160859     -0.526085
O      8.50569     10.43466      3.58206         0.289345     -0.020002      0.014996
O      8.50569     10.54374     17.39634         0.895773     -0.067731     -0.162168
O     12.47271     10.54374      3.58206        -0.793979      0.090902      0.068388
O     12.47271     10.43466     17.39634        -0.529833      0.029902     -0.080901
O      3.58206      8.50569     10.43466         0.191074      1.011379     -0.046171
O     17.39634      8.50569     10.54374        -0.149413      0.598300      0.055979
O      3.58206     12.47271     10.54374         0.099594     -0.472414      0.036503
O     17.39634     12.47271     10.43466        -0.150497     -0.596123     -0.031932
O      3.58206     10.43466      8.50569         0.084933     -0.085146      0.594744
O     17.39634     10.54374      8.50569         0.031764      0.107011      0.337772
O      3.58206     10.54374     12.47271         0.021848      0.039849     -0.485904
O     17.39634     10.43466     12.47271        -0.234251     -0.034939     -0.682547
O     10.43466      8.50569      3.58206        -0.041050      0.481028      0.141109
O     10.54374      8.50569     17.39634        -0.081392      0.748645     -0.208223
O     10.54374     12.47271      3.58206         0.038078     -0.981843      0.147032
O     10.43466     12.47271     17.39634         0.077320     -0.903612     -0.236293
O      8.50569      3.58206     10.43466         0.579454      0.142817     -0.057426
O      8.50569     17.39634     10.54374         0.545397     -0.175126     -0.002974
O     12.47271      3.58206     10.54374        -0.614618      0.178100      0.011667
O     12.47271     17.39634     10.43466        -0.339891      0.017373     -0.047106
O     11.90042     11.90042     19.56718        -0.285149     -0.311671      0.218160
O     19.56718     19.56718     19.56718         0.321254      0.302636      0.210346
O     19.56718     11.90042     11.90042         0.318923     -0.262326     -0.239557
O     11.90042     19.56718     11.90042        -0.252189      0.315542     -0.322212
O      9.45224      1.03696      9.45224        -0.008083      0.061386     -0.156577
O      1.03696      9.45224      9.45224         0.071340     -0.056257     -0.184388
O      1.03696      1.03696      1.03696         0.106300      0.154745      0.023414
O      9.45224      9.45224      1.03696        -0.096505     -0.098694      0.004741
Zr     10.48920      2.52580     10.48920        -0.068857     -0.192488     -0.001308
Zr     10.48920     18.45260     10.48920        -0.065142      0.148524      0.237311
Zr     10.48920     10.48920      2.52580        -0.121609     -0.450818     -0.187719
Zr     10.48920     10.48920     18.45260        -0.016279      0.051449      0.513915
Zr      2.52580     10.48920     10.48920        -0.303159      0.217616      0.261922
Zr     18.45260     10.48920     10.48920         0.169580     -0.010017     -0.033359
Pd     13.55579      8.82767      9.27660        -0.056991      0.109133     -0.024377
Pd      5.84334      9.76704      9.97829        -0.095884     -0.101629     -0.053693
Pd      6.94099     11.36466     11.77658        -0.054487     -0.010020     -0.051699
Pd     12.18918     13.08173      7.38250        -0.019981      0.028761     -0.020934
Pd     12.16841      7.66990      6.98014         0.060725      0.192639      0.111007
Pd      8.32433      7.08759      6.60814         0.066373      0.051224      0.116853
Pd     10.96986     11.31474      5.58859        -0.074789      0.077459     -0.048137
Pd     14.64932      8.56598      6.86779         0.005844      0.013644     -0.125299
Pd      9.82381     11.68315      8.12923         0.038956      0.065827     -0.081445
Pd      6.73443      6.81097     12.30339        -0.007176     -0.041133     -0.124642
Pd      6.43775      7.50130      8.36012        -0.025236      0.031889      0.006049
Pd      7.05632      9.01741     13.68878         0.073651      0.040405      0.110161
Pd     11.67902      6.56485      9.33095        -0.097959      0.039606      0.175176
Pd      9.91500      9.27824      6.85811        -0.028950     -0.061236     -0.016826
Pd      9.04707     13.90855      9.48188         0.012969      0.060665     -0.099031
Pd     10.37210      7.23450     11.47960        -0.053557     -0.001537     -0.130666
Pd     10.65683      9.05538      9.46684        -0.125651     -0.192413     -0.071732
Pd      9.39809     11.25051     10.74074        -0.001266     -0.002247     -0.036121
Pd      8.97349      7.02276      9.19243         0.111363     -0.057053     -0.084115
Pd      8.96126      7.23523     13.64783        -0.096131     -0.044885      0.034490
Pd      8.17868      8.84140     11.26330         0.056074      0.046860      0.082687
Pd     12.19580     10.39105      7.69237        -0.030135     -0.056586      0.033673
Pd      7.27852     11.99053      9.19060        -0.152416      0.028567      0.030375
Pd      8.10707      9.55444      8.66398        -0.042200     -0.013571      0.019855
Pd     14.20790      6.42347      8.42114         0.005796     -0.034829      0.098584
Pd     12.71994      8.44966     11.76131         0.032628     -0.134848     -0.093333
Pd      8.82362     11.42391     13.56357         0.132716      0.000151     -0.058173
Pd     13.85587     11.91804      9.07821        -0.013520      0.008281      0.044226
Pd     12.94952     10.87978     13.21735        -0.050316     -0.077763     -0.072198
Pd     14.68894     10.43873     11.18250         0.074141     -0.188679     -0.059693
Pd     12.03911     10.76743     10.71532         0.096540      0.021473     -0.008583
Pd     11.45995     13.15832      9.91327         0.144115      0.036205      0.046840
Pd     13.57923     12.96501     11.65903        -0.124220      0.093407      0.005285
Pd     11.03040     12.64078     12.51266         0.158053      0.018559      0.000886
Pd     11.09491     11.44902     14.97942        -0.053470     -0.110387     -0.037090
Pd     10.55495      9.61722     12.76260        -0.104400     -0.027015      0.004421
Pd      9.39469      9.38620     15.22731         0.092412      0.106650     -0.105695
Pd      8.63797     13.57207     12.05993        -0.155426     -0.006733      0.007272
