152
# total energy = -1110.39257813 eVH     10.35389      5.87395      7.64558        -0.386921     -0.130397      1.147861
H     10.62451     15.10445      7.64558         0.328128      0.077747      0.919509
H     10.62451      5.87395     13.33282        -0.318922     -0.676698     -1.339115
H     10.35389     15.10445     13.33282        -0.586089      0.427649     -0.333911
H      7.64558     10.35389      5.87395         0.557678     -0.521346     -0.100939
H      7.64558     10.62451     15.10445         0.385547     -0.234377      0.043562
H     13.33282     10.62451      5.87395        -0.579630      0.646786     -0.048390
H     13.33282     10.35389     15.10445        -0.525373      0.387471      0.153812
H      5.87395      7.64558     10.35389         0.149309      0.556001      0.027909
H     15.10445      7.64558     10.62451         0.428626      1.021629      0.284002
H      5.87395     13.33282     10.62451        -0.220953     -0.503310      0.361939
H     15.10445     13.33282     10.35389         0.027778     -0.299435     -0.379839
H      5.87395     10.35389      7.64558        -0.103307     -0.411310      1.487246
H     15.10445     10.62451      7.64558         0.219540      0.514115      1.326864
H      5.87395     10.62451     13.33282        -0.217678     -0.370196     -1.205829
H     15.10445     10.35389     13.33282         0.611937      1.000688     -1.533446
H     10.35389      7.64558      5.87395        -0.584471      0.529896     -0.173157
H     10.62451      7.64558     15.10445        -0.134035      0.450828      0.157897
H     10.62451     13.33282      5.87395         0.869210     -1.328869     -0.312936
H     10.35389     13.33282     15.10445         0.225445     -0.562729     -0.105960
H      7.64558      5.87395     10.35389         0.720490      0.163805     -0.173549
H      7.64558     15.10445     10.62451         1.980604      0.749719      0.222750
H     13.33282      5.87395     10.62451        -2.654915     -0.905341     -0.513310
H     13.33282     15.10445     10.35389        -0.877655     -0.056379     -0.252588
H     12.45634     12.45634     19.01126         0.271972      0.257864     -0.227391
H     19.01126     19.01126     19.01126        -0.266791     -0.254792     -0.238740
H     19.01126     12.45634     12.45634        -0.284057      0.281694      0.184879
H     12.45634     19.01126     12.45634         0.256460     -0.250656      0.235758
C     10.35284      5.61067      6.59456         0.076355     -0.484218     -1.203934
C     10.62556     15.36773      6.59456         0.191773      0.754079     -0.811429
C     10.62556      5.61067     14.38384         0.180857     -0.295667      1.785395
C     10.35284     15.36773     14.38384         0.085365      0.383530      1.791788
C      6.59456     10.35284      5.61067        -1.138335     -0.110528     -0.895937
C      6.59456     10.62556     15.36773        -0.701884     -0.095111      0.795133
C     14.38384     10.62556      5.61067         0.837964     -0.111446     -0.990541
C     14.38384     10.35284     15.36773         1.178134      0.168369      1.098383
C      5.61067      6.59456     10.35284        -0.668453     -0.900560     -0.188503
C     15.36773      6.59456     10.62556         2.008620     -0.322141     -0.187686
C      5.61067     14.38384     10.62556        -1.568396     -0.013148     -0.141827
C     15.36773     14.38384     10.35284         0.484771      0.089987      0.000331
C      5.61067     10.35284      6.59456        -0.274747      0.212725     -1.353284
C     15.36773     10.62556      6.59456         0.295798     -0.265423     -0.981092
C      5.61067     10.62556     14.38384        -0.255830      0.447041      1.458244
C     15.36773     10.35284     14.38384         0.004840     -0.487419      1.944377
C     10.35284      6.59456      5.61067        -0.159863     -0.848068     -0.698310
C     10.62556      6.59456     15.36773        -0.118316     -0.715994      1.045349
C     10.62556     14.38384      5.61067        -0.501498      1.987567     -0.753647
C     10.35284     14.38384     15.36773        -0.259717      1.359311      0.502285
C      6.59456      5.61067     10.35284        -0.988419     -0.409821      0.094354
C      6.59456     15.36773     10.62556        -1.257050      0.369592     -0.333148
C     14.38384      5.61067     10.62556         1.270618     -1.300720      0.216376
C     14.38384     15.36773     10.35284         0.458158      0.310714      0.086080
C     10.40319      3.19606      7.29314         0.001149      0.305023     -0.111265
C     10.35913      4.25547      6.23373         0.142100     -0.575944      0.016265
C      0.08601      7.29314      7.29314        -0.053369     -0.279921     -0.419957
C      0.13007      6.23373      6.23373        -0.123391      0.669838      0.017325
C      0.08601      3.19606      3.19606        -0.105651      1.662349      0.165671
C      0.13007      4.25547      4.25547        -0.097018     -0.392297     -1.207065
C     10.40319      7.29314      3.19606         0.015794     -0.449583      0.121704
C     10.35913      6.23373      4.25547         0.263930      0.086612     -0.535196
C      7.29314     10.40319      3.19606        -1.696753      0.010990      0.324707
C      6.23373     10.35913      4.25547         0.670244      0.080964     -0.622925
C      7.29314      0.08601      7.29314        -0.410703     -0.015358     -0.317390
C      6.23373      0.13007      6.23373         0.726715     -0.058369      0.245893
C      3.19606      0.08601      3.19606         0.661081     -0.018388      0.180070
C      4.25547      0.13007      4.25547        -0.357342     -0.085583     -0.571021
C      3.19606     10.40319      7.29314         0.350367      0.023403     -0.319541
C      4.25547     10.35913      6.23373        -0.740747      0.078300      0.362855
C      3.19606      7.29314     10.40319         0.285312     -0.202566     -0.006568
C      4.25547      6.23373     10.35913         0.042399      0.633408      0.091599
C      7.29314      7.29314      0.08601        -0.716093     -0.610133     -0.027579
C      6.23373      6.23373      0.13007         0.902265      1.124623     -0.065629
C      3.19606      3.19606      0.08601         0.823982      0.514371      0.001292
C      4.25547      4.25547      0.13007        -0.326619     -1.766979     -0.130039
C      7.29314      3.19606     10.40319        -0.324888      0.270979     -0.004520
C      6.23373      4.25547     10.35913         0.508245     -0.020991      0.230918
O     10.43466      3.58206      8.50569        -0.048624      0.187014      0.259755
O     10.54374     17.39634      8.50569         0.042267     -0.236494      0.486600
O     10.54374      3.58206     12.47271         0.083906     -0.075462     -0.022761
O     10.43466     17.39634     12.47271        -0.023150     -0.141713     -0.268877
O      8.50569     10.43466      3.58206         0.993034      0.189885      0.376944
O      8.50569     10.54374     17.39634         0.579791      0.084377     -0.229626
O     12.47271     10.54374      3.58206        -0.413660     -0.040937      0.181807
O     12.47271     10.43466     17.39634        -0.506594     -0.067606     -0.192925
O      3.58206      8.50569     10.43466         0.184528      0.423313     -0.028801
O     17.39634      8.50569     10.54374        -0.230471      0.712688      0.046252
O      3.58206     12.47271     10.54374         0.162214     -0.682316      0.026288
O     17.39634     12.47271     10.43466        -0.186685     -0.474919     -0.010368
O      3.58206     10.43466      8.50569         0.231216     -0.061786      0.406165
O     17.39634     10.54374      8.50569        -0.171875      0.037349      0.412639
O      3.58206     10.54374     12.47271         0.148394      0.021422     -0.303924
O     17.39634     10.43466     12.47271         0.081350     -0.051714     -0.070481
O     10.43466      8.50569      3.58206         0.004923      0.273478      0.183650
O     10.54374      8.50569     17.39634         0.069608      0.426342     -0.174286
O     10.54374     12.47271      3.58206        -0.222008     -0.974716      0.329877
O     10.43466     12.47271     17.39634        -0.082193     -0.450976     -0.245244
O      8.50569      3.58206     10.43466         0.488993      0.197476     -0.009922
O      8.50569     17.39634     10.54374         0.665074     -0.203661      0.022299
O     12.47271      3.58206     10.54374        -0.747265      0.280656      0.038164
O     12.47271     17.39634     10.43466        -0.432360     -0.205986     -0.043604
O     11.90042     11.90042     19.56718        -0.347215     -0.307271      0.261019
O     19.56718     19.56718     19.56718         0.324157      0.311642      0.284191
O     19.56718     11.90042     11.90042         0.274520     -0.273646     -0.138221
O     11.90042     19.56718     11.90042        -0.305277      0.283049     -0.233141
O      9.45224      1.03696      9.45224        -0.061356      0.073225     -0.045070
O      1.03696      9.45224      9.45224         0.035790     -0.075711     -0.070024
O      1.03696      1.03696      1.03696         0.063692      0.150122      0.095400
O      9.45224      9.45224      1.03696        -0.143463     -0.098678      0.095750
Zr     10.48920      2.52580     10.48920         0.164248     -0.173502     -0.168072
Zr     10.48920     18.45260     10.48920        -0.101526      0.187674     -0.050973
Zr     10.48920     10.48920      2.52580         0.344374     -0.310418     -0.205253
Zr     10.48920     10.48920     18.45260         0.015060     -0.088571      0.199828
Zr      2.52580     10.48920     10.48920        -0.071968      0.179967     -0.052449
Zr     18.45260     10.48920     10.48920         0.147107     -0.132920     -0.252958
Ir     12.03778     12.48355     10.45470         0.010733     -0.010300     -0.014716
Ir     11.21959      7.41322     10.24163         0.008507     -0.001789     -0.017827
Ir      8.85763      7.34825     11.52157         0.004407     -0.007972     -0.012762
Ir      7.46056     11.64777      7.65750        -0.009809     -0.002317     -0.000904
Ir     11.59575     12.07156      7.11182         0.002653     -0.005655     -0.002420
Ir     13.78576      8.99336      7.52074         0.007036      0.001845     -0.010614
Ir     12.47060     13.95212      8.40645        -0.002988     -0.004699     -0.002529
Ir      9.74042     11.25413      5.53840         0.004286     -0.002029     -0.007497
Ir      9.07400     13.44114      7.07723        -0.000700     -0.006546     -0.001674
Ir      9.26523      9.67352      7.49791        -0.004937      0.005789     -0.005191
Ir     13.28629      7.03536     11.95986         0.001118     -0.006954      0.001601
Ir     13.64076      7.04240      9.10663         0.016199     -0.000681     -0.001492
Ir     11.04535      7.59025     12.79714        -0.002124     -0.003757     -0.014608
Ir     13.59748     11.56445      8.75040        -0.009651      0.000597      0.002662
Ir     11.50197      9.62039      6.21783        -0.002088     -0.008251     -0.006147
Ir      7.16182      9.14491      8.91865         0.000505     -0.006406     -0.006882
Ir     14.06062     11.43995     11.64586        -0.000236      0.000569     -0.006274
Ir     11.66153      9.82425      8.85823        -0.000944     -0.005045     -0.010010
Ir      9.44453      9.49834     10.22388         0.005133      0.001471     -0.007861
Ir     13.88062      9.41324     10.16564         0.003713      0.004020     -0.006915
Ir     13.83892      9.16291     12.87767         0.010222      0.000463     -0.007799
Ir     11.70372      9.75786     11.53648         0.004280     -0.001254     -0.009253
Ir      9.91738     11.72767      8.96138         0.005252     -0.018673     -0.000905
Ir      9.11238      7.43401      8.76600         0.012247      0.000385     -0.019210
Ir     11.64175      7.51998      7.71844         0.022075     -0.017929     -0.017961
Ir      9.25614      9.46505     13.00197         0.001610     -0.003824     -0.004951
Ir      7.50523     13.89865      8.99432        -0.002496     -0.002111      0.001136
Ir     10.86210     14.09739     11.95198        -0.010132      0.005202      0.011333
Ir     10.11057     14.14365      9.51480        -0.001730      0.002380     -0.003028
Ir      9.79059     11.67687     11.72257        -0.007631     -0.010984      0.000602
Ir      7.59076     11.55990     10.20558         0.003140     -0.004603     -0.000630
Ir      8.34307     13.73197     11.58156        -0.001694     -0.006294     -0.000596
Ir      7.52537     11.53912     12.82083         0.002493     -0.007749     -0.003665
Ir      9.77947     11.58783     14.34184         0.005432     -0.011124     -0.001167
Ir     13.46376     13.88380     12.18551        -0.000330      0.001517     -0.001298
Ir     11.98966     12.04166     13.07611         0.000639     -0.010702      0.002255
Ir     11.58706      9.77707     14.17548         0.003478     -0.008925     -0.010952
Ir      7.15858      9.34380     11.47718         0.000101     -0.005794     -0.004746
