152
# total energy = -1024.30742652 eVH     10.35389      5.87395      7.64558         0.469187      0.042345      0.737411
H     10.62451     15.10445      7.64558         0.011035     -0.188932      0.588336
H     10.62451      5.87395     13.33282         0.110002      0.157447     -0.587874
H     10.35389     15.10445     13.33282        -0.418539     -0.052142     -0.771429
H      7.64558     10.35389      5.87395         0.342689      0.010612      0.172875
H      7.64558     10.62451     15.10445         0.886140     -0.352549     -0.018472
H     13.33282     10.62451      5.87395        -0.764934     -0.055656      0.152839
H     13.33282     10.35389     15.10445        -0.870784     -0.389319      0.192294
H      5.87395      7.64558     10.35389         0.209061      0.609360     -0.080668
H     15.10445      7.64558     10.62451        -0.140885      0.398262     -0.042146
H      5.87395     13.33282     10.62451         0.162360     -0.521680     -0.111972
H     15.10445     13.33282     10.35389        -0.081629     -1.172254      0.010464
H      5.87395     10.35389      7.64558         0.134439      0.139688      0.510752
H     15.10445     10.62451      7.64558         0.037135      0.078815      1.029781
H      5.87395     10.62451     13.33282         0.106275     -0.047539     -0.418164
H     15.10445     10.35389     13.33282        -0.119857     -0.161093     -0.568639
H     10.35389      7.64558      5.87395         0.030284      0.972935      0.246236
H     10.62451      7.64558     15.10445         0.011421      0.278909     -0.175863
H     10.62451     13.33282      5.87395        -0.085789     -0.431951      0.325968
H     10.35389     13.33282     15.10445        -0.449461     -0.639220     -0.022052
H      7.64558      5.87395     10.35389         0.480202      0.118981      0.028817
H      7.64558     15.10445     10.62451         0.891103     -0.258542     -0.036273
H     13.33282      5.87395     10.62451        -0.576740      0.137202     -0.077033
H     13.33282     15.10445     10.35389        -0.646283     -0.052709      0.227004
H     12.45634     12.45634     19.01126         0.238246      0.275463     -0.235629
H     19.01126     19.01126     19.01126        -0.252218     -0.246354     -0.242620
H     19.01126     12.45634     12.45634        -0.262682      0.268113      0.221078
H     12.45634     19.01126     12.45634         0.232001     -0.264496      0.241976
C     10.35284      5.61067      6.59456        -0.192828     -0.625129      0.064415
C     10.62556     15.36773      6.59456        -0.023272      0.371991     -0.764442
C     10.62556      5.61067     14.38384        -0.011916     -0.069545      0.711934
C     10.35284     15.36773     14.38384         0.147598      0.727746      0.191992
C      6.59456     10.35284      5.61067        -0.371565     -0.023611     -0.275622
C      6.59456     10.62556     15.36773        -1.022355      0.354862      0.370694
C     14.38384     10.62556      5.61067         0.414815      0.325570     -0.613520
C     14.38384     10.35284     15.36773         0.965211     -0.008422      0.340051
C      5.61067      6.59456     10.35284        -0.384398     -0.446112      0.273475
C     15.36773      6.59456     10.62556         0.195262     -0.521528      0.029471
C      5.61067     14.38384     10.62556        -0.188560      0.584098      0.013459
C     15.36773     14.38384     10.35284         0.356116      0.031169     -0.138133
C      5.61067     10.35284      6.59456        -0.312451     -0.067862     -0.936964
C     15.36773     10.62556      6.59456         0.796024     -0.309051     -1.027185
C      5.61067     10.62556     14.38384        -0.486721      0.010173      0.282572
C     15.36773     10.35284     14.38384         0.660164     -0.101055      1.105923
C     10.35284      6.59456      5.61067        -0.246282     -0.621105     -0.853095
C     10.62556      6.59456     15.36773         0.051328     -0.292302      0.076681
C     10.62556     14.38384      5.61067         0.098874      1.213702     -0.434326
C     10.35284     14.38384     15.36773         0.222147      0.120736      0.708493
C      6.59456      5.61067     10.35284        -0.343813     -0.732052      0.079180
C      6.59456     15.36773     10.62556        -1.206996      0.279605      0.083146
C     14.38384      5.61067     10.62556         0.921118     -0.280801      0.026284
C     14.38384     15.36773     10.35284        -0.507345      0.766642     -0.328637
C     10.40319      3.19606      7.29314        -0.016265      0.827403     -0.391473
C     10.35913      4.25547      6.23373         0.046277     -0.457805      0.569835
C      0.08601      7.29314      7.29314        -0.017608     -0.486799     -0.348447
C      0.13007      6.23373      6.23373        -0.019058      0.017842      0.095782
C      0.08601      3.19606      3.19606         0.000611      1.240234      0.187238
C      0.13007      4.25547      4.25547        -0.051541     -0.219478     -0.216829
C     10.40319      7.29314      3.19606        -0.003465     -1.033773      0.388378
C     10.35913      6.23373      4.25547         0.024940      0.467180     -0.648641
C      7.29314     10.40319      3.19606        -0.365541      0.042080      0.794585
C      6.23373     10.35913      4.25547         0.212711      0.087065     -0.110976
C      7.29314      0.08601      7.29314        -0.591974     -0.021949     -0.267139
C      6.23373      0.13007      6.23373         0.383842     -0.064958      0.460883
C      3.19606      0.08601      3.19606         0.914475     -0.011417      0.340109
C      4.25547      0.13007      4.25547        -0.107817     -0.047041     -0.508039
C      3.19606     10.40319      7.29314         0.467431     -0.002795     -0.784031
C      4.25547     10.35913      6.23373        -0.258472      0.104040      0.247829
C      3.19606      7.29314     10.40319         0.490242     -1.338496     -0.043969
C      4.25547      6.23373     10.35913        -0.389440      0.814046      0.056844
C      7.29314      7.29314      0.08601        -0.408517     -0.228140     -0.008224
C      6.23373      6.23373      0.13007         0.161165      0.144650     -0.013468
C      3.19606      3.19606      0.08601         0.248775      0.261508     -0.019851
C      4.25547      4.25547      0.13007        -0.104266     -0.051179      0.017046
C      7.29314      3.19606     10.40319        -0.364316      0.677315      0.010465
C      6.23373      4.25547     10.35913         1.110799      0.031326      0.012650
O     10.43466      3.58206      8.50569        -0.029856      0.057422      0.447525
O     10.54374     17.39634      8.50569        -0.004355     -0.087673      0.433961
O     10.54374      3.58206     12.47271         0.044193     -0.096904     -0.137736
O     10.43466     17.39634     12.47271        -0.057319     -0.050134     -0.474617
O      8.50569     10.43466      3.58206         0.308046     -0.032697     -0.045043
O      8.50569     10.54374     17.39634         0.681013      0.026452     -0.170316
O     12.47271     10.54374      3.58206        -0.737383     -0.035673      0.140892
O     12.47271     10.43466     17.39634        -0.427903     -0.026931     -0.036065
O      3.58206      8.50569     10.43466         0.140806      1.084314     -0.004378
O     17.39634      8.50569     10.54374        -0.085465      0.412802      0.064263
O      3.58206     12.47271     10.54374         0.068277     -0.411966      0.039914
O     17.39634     12.47271     10.43466        -0.161805     -0.695846      0.003008
O      3.58206     10.43466      8.50569         0.029512     -0.072266      0.667967
O     17.39634     10.54374      8.50569        -0.067535      0.043997      0.339818
O      3.58206     10.54374     12.47271        -0.008687      0.025837     -0.300896
O     17.39634     10.43466     12.47271        -0.245542      0.017844     -0.738831
O     10.43466      8.50569      3.58206         0.113315      0.832609      0.197639
O     10.54374      8.50569     17.39634         0.036098      0.673525     -0.162190
O     10.54374     12.47271      3.58206        -0.012547     -1.016505      0.199796
O     10.43466     12.47271     17.39634        -0.028379     -0.886682     -0.196168
O      8.50569      3.58206     10.43466         0.526906      0.104986     -0.018086
O      8.50569     17.39634     10.54374         0.527667     -0.207656     -0.013808
O     12.47271      3.58206     10.54374        -0.466398      0.155606      0.056805
O     12.47271     17.39634     10.43466        -0.384396      0.039337     -0.009106
O     11.90042     11.90042     19.56718        -0.274319     -0.324801      0.260461
O     19.56718     19.56718     19.56718         0.281833      0.284770      0.287067
O     19.56718     11.90042     11.90042         0.291708     -0.302878     -0.199065
O     11.90042     19.56718     11.90042        -0.269893      0.279754     -0.246649
O      9.45224      1.03696      9.45224        -0.085302      0.054395     -0.054210
O      1.03696      9.45224      9.45224         0.035357     -0.171472     -0.112308
O      1.03696      1.03696      1.03696         0.006568      0.116262      0.212545
O      9.45224      9.45224      1.03696        -0.062106     -0.087865      0.131860
Zr     10.48920      2.52580     10.48920        -0.027103     -0.121008     -0.173857
Zr     10.48920     18.45260     10.48920         0.019875      0.232459     -0.030108
Zr     10.48920     10.48920      2.52580        -0.098854     -0.180455     -0.542407
Zr     10.48920     10.48920     18.45260        -0.037710      0.035876      0.465327
Zr      2.52580     10.48920     10.48920        -0.369345      0.309313      0.111216
Zr     18.45260     10.48920     10.48920         0.203331      0.039434     -0.245059
Pd      8.55353      9.90352     13.22924        -0.005570     -0.038346     -0.015286
Pd     10.53209      9.50687     10.26159        -0.033197      0.016324      0.013126
Pd     13.33947      8.73028     12.47809        -0.043184     -0.001195      0.008239
Pd     10.43906     10.64633     15.08919        -0.017118      0.021568     -0.010487
Pd     12.96464     11.35414     13.47623         0.006364     -0.005770      0.016856
Pd     14.94110     10.69990     11.30371        -0.014000      0.010313      0.018154
Pd      6.83916      7.83370     12.50081        -0.003691     -0.042621     -0.026923
Pd      9.22335      7.23757      9.56974        -0.001862     -0.005914     -0.005985
Pd      9.51603      7.55836     12.30104        -0.046221     -0.006321     -0.025229
Pd     11.74655      7.18631     10.93927         0.017169     -0.005204     -0.019253
Pd     11.60085      7.86195      8.34420         0.020031     -0.034595     -0.022437
Pd      7.16095     11.74538     11.61592        -0.000718     -0.016996      0.002159
Pd      9.20766     14.33818      9.35691         0.028195     -0.023532     -0.016952
Pd      8.14583     12.39390     14.19662         0.022006      0.006414     -0.019823
Pd     14.15422     14.20715      8.35644         0.039552      0.017802     -0.035988
Pd     11.66304     13.34186      8.82738         0.018756     -0.007918     -0.012861
Pd     14.09839     11.63142      8.95771        -0.014588      0.010549      0.021714
Pd      8.74457     13.93810     12.13715        -0.002221      0.005060     -0.032636
Pd     12.20133     13.92334     13.97579        -0.005103      0.001586      0.005156
Pd     11.37845     14.09632     11.36475         0.006302      0.015231     -0.013201
Pd     14.01623     13.41516     12.09409         0.033388     -0.024429      0.022030
Pd     12.31623     11.59001     10.89628        -0.029087     -0.015766     -0.012402
Pd     12.91689     12.61945      6.61247        -0.019711      0.022202     -0.020369
Pd     13.91667      8.86933      7.58547         0.011920     -0.004056      0.004378
Pd      6.96124      8.47653      8.49190         0.012625     -0.017826     -0.009906
Pd      5.55340     10.03788     10.21699        -0.004143     -0.005490     -0.044735
Pd      9.36331      9.48656      7.55018         0.029395      0.004097      0.003874
Pd      8.50065      7.00816      6.96661        -0.006882     -0.020264     -0.016285
Pd      9.66371     11.94935     10.57296         0.020964     -0.023022     -0.028110
Pd     11.75864     10.64869      8.08894        -0.040278      0.008101      0.010731
Pd     11.72250      8.97391      5.90933        -0.000802      0.010578     -0.002923
Pd     10.49066     11.34854      5.77875         0.016519     -0.011006      0.035068
Ir     11.03132      9.66855     12.74141        -0.016031      0.038993     -0.007733
Ir     13.17427      9.30525      9.97976         0.009572     -0.022222      0.005365
Ir     10.50942     12.12208     12.94488        -0.024039     -0.002754     -0.032567
Ir      7.69884     11.02687      9.12758         0.032050     -0.033768     -0.022970
Ir      9.50674     12.09807      8.01079         0.028952      0.043473      0.044837
Ir      8.05385      9.25850     10.79540         0.027461      0.026865     -0.009192
