152
# total energy = -1004.93500520 eVH     10.35389      5.87395      7.64558         0.073379      0.076824      0.630541
H     10.62451     15.10445      7.64558        -0.114617     -0.154653      0.493169
H     10.62451      5.87395     13.33282         0.463742      0.041475     -0.843163
H     10.35389     15.10445     13.33282         0.033188     -0.158870     -0.446224
H      7.64558     10.35389      5.87395         0.340876      0.027855      0.158642
H      7.64558     10.62451     15.10445         0.960317      0.537548      0.030748
H     13.33282     10.62451      5.87395        -0.544149      0.348908      0.019962
H     13.33282     10.35389     15.10445        -0.950619     -0.222509      0.127284
H      5.87395      7.64558     10.35389         0.291474      1.340806      0.130551
H     15.10445      7.64558     10.62451        -0.103412      0.535084      0.280981
H      5.87395     13.33282     10.62451         0.179490     -0.549963      0.025564
H     15.10445     13.33282     10.35389        -0.012814     -1.044206     -0.313661
H      5.87395     10.35389      7.64558         0.196012      0.039373      0.444056
H     15.10445     10.62451      7.64558        -0.136840      0.591892      0.814817
H      5.87395     10.62451     13.33282        -0.039226      0.579242     -1.296210
H     15.10445     10.35389     13.33282        -0.014267     -0.122528     -0.688084
H     10.35389      7.64558      5.87395         0.144901      1.344779      0.024333
H     10.62451      7.64558     15.10445         0.577366      0.722557     -0.148873
H     10.62451     13.33282      5.87395        -0.364138     -0.771866      0.295063
H     10.35389     13.33282     15.10445        -0.161677     -0.465786     -0.317851
H      7.64558      5.87395     10.35389         0.836228      0.028992     -0.182719
H      7.64558     15.10445     10.62451         0.800602     -0.179792      0.012090
H     13.33282      5.87395     10.62451        -0.622761      0.169135      0.513097
H     13.33282     15.10445     10.35389        -0.432368     -0.092214     -0.149938
H     12.45634     12.45634     19.01126         0.255677      0.271008     -0.229583
H     19.01126     19.01126     19.01126        -0.279168     -0.260822     -0.223844
H     19.01126     12.45634     12.45634        -0.278089      0.259742      0.220479
H     12.45634     19.01126     12.45634         0.238958     -0.267579      0.263662
C     10.35284      5.61067      6.59456        -0.298922     -0.797698     -0.034788
C     10.62556     15.36773      6.59456         0.034219      0.232761     -0.300703
C     10.62556      5.61067     14.38384        -0.079844     -0.457096      0.510781
C     10.35284     15.36773     14.38384         0.012046      0.277038      0.412748
C      6.59456     10.35284      5.61067        -0.361343      0.019777     -0.190759
C      6.59456     10.62556     15.36773        -0.981664      0.170925      0.745992
C     14.38384     10.62556      5.61067         0.188285     -0.368127     -0.732398
C     14.38384     10.35284     15.36773         1.135802     -0.077817      0.203419
C      5.61067      6.59456     10.35284        -0.731360     -0.305093     -0.242351
C     15.36773      6.59456     10.62556         0.598334     -0.075287     -0.319902
C      5.61067     14.38384     10.62556        -0.179179      0.563261      0.006746
C     15.36773     14.38384     10.35284         0.278873      0.995858      0.063860
C      5.61067     10.35284      6.59456        -0.282339      0.016051     -0.778852
C     15.36773     10.62556      6.59456         0.538990     -0.151912      0.135287
C      5.61067     10.62556     14.38384        -0.744492     -0.009079      0.918797
C     15.36773     10.35284     14.38384         0.524128     -0.102242      1.050523
C     10.35284      6.59456      5.61067        -0.058205     -0.856746     -0.563134
C     10.62556      6.59456     15.36773         0.084011     -0.612053      0.493475
C     10.62556     14.38384      5.61067         0.133555      1.168828     -0.287366
C     10.35284     14.38384     15.36773        -0.017525      0.984060      0.508314
C      6.59456      5.61067     10.35284         0.174045     -1.100836      0.335734
C      6.59456     15.36773     10.62556        -0.974611      0.186219      0.094295
C     14.38384      5.61067     10.62556         0.081708     -0.492941     -0.378361
C     14.38384     15.36773     10.35284         0.167535      0.441811     -0.069341
C     10.40319      3.19606      7.29314         0.012060      1.040913     -0.440274
C     10.35913      4.25547      6.23373         0.083268     -0.632624      0.093443
C      0.08601      7.29314      7.29314        -0.032742     -0.961720     -0.169815
C      0.13007      6.23373      6.23373        -0.076338      0.242176      0.356847
C      0.08601      3.19606      3.19606         0.032393      1.352542      0.208602
C      0.13007      4.25547      4.25547        -0.028269     -0.451130     -0.321608
C     10.40319      7.29314      3.19606         0.004570     -0.392538      0.279588
C     10.35913      6.23373      4.25547         0.030804      0.030151     -0.860850
C      7.29314     10.40319      3.19606        -0.259649      0.020235      0.564015
C      6.23373     10.35913      4.25547         0.151918      0.069592     -0.093773
C      7.29314      0.08601      7.29314        -1.121725     -0.087709     -0.267183
C      6.23373      0.13007      6.23373         0.852394     -0.205335      0.374858
C      3.19606      0.08601      3.19606         0.990074     -0.030104      0.545835
C      4.25547      0.13007      4.25547        -0.618394     -0.157989     -0.620821
C      3.19606     10.40319      7.29314         0.614012      0.005051     -0.639320
C      4.25547     10.35913      6.23373        -0.284039      0.100220      0.242068
C      3.19606      7.29314     10.40319         0.336632     -1.116561      0.027814
C      4.25547      6.23373     10.35913        -1.101471      0.043036      0.138784
C      7.29314      7.29314      0.08601        -0.441335     -0.426251     -0.017212
C      6.23373      6.23373      0.13007         0.508710      0.276182      0.023679
C      3.19606      3.19606      0.08601         0.446749      0.353475     -0.036175
C      4.25547      4.25547      0.13007        -0.081154     -0.588991     -0.062359
C      7.29314      3.19606     10.40319        -0.390672      0.493438      0.061412
C      6.23373      4.25547     10.35913         0.307582     -0.763280      0.183952
O     10.43466      3.58206      8.50569        -0.030268      0.006757      0.406577
O     10.54374     17.39634      8.50569         0.069879     -0.039542      0.258315
O     10.54374      3.58206     12.47271         0.017268     -0.104420     -0.116378
O     10.43466     17.39634     12.47271        -0.032671     -0.159101     -0.528128
O      8.50569     10.43466      3.58206         0.292497     -0.020068      0.016263
O      8.50569     10.54374     17.39634         0.901256     -0.069933     -0.165876
O     12.47271     10.54374      3.58206        -0.809629      0.093456      0.070606
O     12.47271     10.43466     17.39634        -0.537926      0.028181     -0.086252
O      3.58206      8.50569     10.43466         0.184895      1.009644     -0.039743
O     17.39634      8.50569     10.54374        -0.149096      0.607404      0.055060
O      3.58206     12.47271     10.54374         0.100281     -0.480638      0.038171
O     17.39634     12.47271     10.43466        -0.151878     -0.596880     -0.031593
O      3.58206     10.43466      8.50569         0.081603     -0.083367      0.582827
O     17.39634     10.54374      8.50569         0.034443      0.106500      0.338385
O      3.58206     10.54374     12.47271         0.016738      0.038922     -0.480043
O     17.39634     10.43466     12.47271        -0.233545     -0.034645     -0.689501
O     10.43466      8.50569      3.58206        -0.042259      0.493008      0.143131
O     10.54374      8.50569     17.39634        -0.079234      0.744187     -0.207109
O     10.54374     12.47271      3.58206         0.044650     -0.982151      0.158949
O     10.43466     12.47271     17.39634         0.078313     -0.903698     -0.235642
O      8.50569      3.58206     10.43466         0.575705      0.142288     -0.058295
O      8.50569     17.39634     10.54374         0.543421     -0.171228     -0.002925
O     12.47271      3.58206     10.54374        -0.619586      0.173514      0.014558
O     12.47271     17.39634     10.43466        -0.340350      0.016195     -0.046833
O     11.90042     11.90042     19.56718        -0.288475     -0.311144      0.219839
O     19.56718     19.56718     19.56718         0.319324      0.303747      0.211101
O     19.56718     11.90042     11.90042         0.318825     -0.263741     -0.239510
O     11.90042     19.56718     11.90042        -0.252153      0.317433     -0.318391
O      9.45224      1.03696      9.45224        -0.009602      0.062219     -0.155882
O      1.03696      9.45224      9.45224         0.069644     -0.055753     -0.181733
O      1.03696      1.03696      1.03696         0.101571      0.149929      0.030322
O      9.45224      9.45224      1.03696        -0.092711     -0.093594      0.011061
Zr     10.48920      2.52580     10.48920        -0.062109     -0.192493      0.000030
Zr     10.48920     18.45260     10.48920        -0.063388      0.141679      0.232027
Zr     10.48920     10.48920      2.52580        -0.133644     -0.446565     -0.199296
Zr     10.48920     10.48920     18.45260        -0.003747      0.042899      0.512530
Zr      2.52580     10.48920     10.48920        -0.295268      0.215586      0.239503
Zr     18.45260     10.48920     10.48920         0.171034     -0.012229     -0.034659
Pd     13.51723      8.79276      9.31619        -0.050673      0.081544     -0.022939
Pd      5.85085      9.76134     10.00431        -0.084451     -0.082055     -0.059162
Pd      6.92815     11.40767     11.76381        -0.004176     -0.025971     -0.012259
Pd     12.18194     13.09771      7.40203         0.014457      0.012647     -0.033132
Pd     12.16480      7.65990      6.95912         0.028536      0.172982      0.107354
Pd      8.33517      7.09166      6.64642         0.075542      0.056577      0.107947
Pd     11.00776     11.32117      5.59760        -0.066148      0.079325     -0.061631
Pd     14.63049      8.57201      6.90195         0.022269      0.026890     -0.094925
Pd      9.85186     11.68081      8.13646        -0.046964      0.065436     -0.058953
Pd      6.77022      6.82818     12.28538        -0.038255     -0.054972     -0.137321
Pd      6.41750      7.51089      8.36644         0.004989     -0.012092     -0.003625
Pd      7.06423      9.03281     13.67355         0.114263      0.002755      0.065713
Pd     11.65844      6.55950      9.30770        -0.111204      0.048964      0.146499
Pd      9.92253      9.29692      6.85598        -0.032929     -0.100735     -0.049794
Pd      9.05315     13.90813      9.47821         0.000889      0.051202     -0.116797
Pd     10.43269      7.27242     11.48235        -0.039756      0.025591     -0.103903
Pd     10.63793      9.07209      9.46354        -0.067495     -0.229626     -0.061015
Pd      9.40746     11.27108     10.74385        -0.050353      0.017660     -0.014307
Pd      8.96702      7.02264      9.23462         0.096770     -0.036761     -0.130085
Pd      8.98765      7.25886     13.62637        -0.111160     -0.005546      0.021938
Pd      8.20357      8.86776     11.25057         0.042077      0.028763      0.187194
Pd     12.21861     10.38156      7.70569        -0.039524     -0.088220     -0.013343
Pd      7.27862     11.99075      9.18174        -0.087061      0.016719      0.021367
Pd      8.09591      9.55016      8.65582        -0.008376      0.041885     -0.047391
Pd     14.18183      6.40063      8.41685         0.028191     -0.019661      0.094659
Pd     12.77298      8.47782     11.83780        -0.005676     -0.131733     -0.079975
Pd      8.82001     11.44155     13.54791         0.114986     -0.034352     -0.043027
Pd     13.84781     11.92469      9.08306         0.028696      0.047361      0.043183
Pd     12.97652     10.92124     13.23291        -0.026488     -0.082068     -0.125274
Pd     14.70948     10.43394     11.16197         0.026111     -0.138855     -0.014455
Pd     12.05117     10.76018     10.72341         0.077709      0.059696      0.049901
Pd     11.46323     13.16616      9.93372         0.150194      0.019662      0.033144
Pd     13.59385     12.97840     11.65550        -0.124166      0.076185      0.002389
Pd     11.04512     12.65571     12.52278         0.102956      0.017779     -0.037048
Pd     11.08781     11.45174     14.97675        -0.053584     -0.091768     -0.010551
Pd     10.57709      9.64930     12.77629        -0.080780     -0.053750     -0.007453
Pd      9.38241      9.39589     15.22202         0.109990      0.094588     -0.086989
Pd      8.64462     13.59654     12.05712        -0.118707     -0.015278      0.024186
