8
# total energy = -53.47789211 eVC      1.14292     13.23213     -0.00000         0.000000     -0.033240      0.000000
C      1.14292      4.05407      0.00000         0.000000      0.033240     -0.000000
O      1.14292      5.24292      0.00000         0.000000      0.067846     -0.000000
O      1.14292     12.04328     -0.00000         0.000000     -0.067846      0.000000
O      0.00000     14.00705      0.00000         0.000000     -0.043625      0.000000
O      0.00000      3.27915     -0.00000        -0.000000      0.043625     -0.000000
Ir      0.00000      8.64310      0.00000         0.000000     -0.000000      0.000000
Ir      0.00000      0.00000      0.00000         0.000000     -0.000000      0.000000
