152
# total energy = -1092.21239216 eVH     10.35389      5.87395      7.64558         0.844280     -0.835023      1.588855
H     10.62451     15.10445      7.64558        -0.774520      0.937597      1.848445
H     10.62451      5.87395     13.33282         0.533411     -0.261660     -1.835562
H     10.35389     15.10445     13.33282        -0.687087      0.452363     -1.865424
H      7.64558     10.35389      5.87395         0.377434     -0.083860      0.005967
H      7.64558     10.62451     15.10445         0.491903     -0.151073      0.075725
H     13.33282     10.62451      5.87395        -0.482509      0.008898      0.097526
H     13.33282     10.35389     15.10445        -0.553807      0.184222      0.036308
H      5.87395      7.64558     10.35389         0.036093      1.307588     -0.096587
H     15.10445      7.64558     10.62451        -0.026583      0.633471     -0.007715
H      5.87395     13.33282     10.62451        -0.069930     -0.589632      0.001317
H     15.10445     13.33282     10.35389         0.189231     -1.526256      0.162087
H      5.87395     10.35389      7.64558        -0.283763     -0.121289     -0.020193
H     15.10445     10.62451      7.64558         0.268217      0.170692      0.113992
H      5.87395     10.62451     13.33282        -0.169683      0.161118     -0.054702
H     15.10445     10.35389     13.33282         0.039650     -0.217904     -0.105532
H     10.35389      7.64558      5.87395        -0.238172      0.604092     -0.113763
H     10.62451      7.64558     15.10445         0.140416      0.536337      0.310718
H     10.62451     13.33282      5.87395        -0.149867     -1.003472     -0.149269
H     10.35389     13.33282     15.10445        -0.208332     -0.773018      0.269160
H      7.64558      5.87395     10.35389         0.449295     -0.051166     -0.127980
H      7.64558     15.10445     10.62451         0.638745     -0.009020     -0.078511
H     13.33282      5.87395     10.62451        -0.533871      0.022898      0.083079
H     13.33282     15.10445     10.35389        -0.511593      0.180456     -0.033916
H     12.45634     12.45634     19.01126         0.257609      0.250393     -0.243998
H     19.01126     19.01126     19.01126        -0.256989     -0.247853     -0.246257
H     19.01126     12.45634     12.45634        -0.253521      0.267426      0.234984
H     12.45634     19.01126     12.45634         0.257104     -0.268283      0.230997
C     10.35284      5.61067      6.59456        -0.540582     -0.044844     -1.889202
C     10.62556     15.36773      6.59456         0.432827     -0.049378     -1.979917
C     10.62556      5.61067     14.38384        -0.408067     -0.083313      1.862735
C     10.35284     15.36773     14.38384         0.346000      0.232902      1.970615
C      6.59456     10.35284      5.61067        -0.615697     -0.010219     -0.221377
C      6.59456     10.62556     15.36773        -0.889117     -0.061808      0.230569
C     14.38384     10.62556      5.61067         0.725978      0.010141     -0.131350
C     14.38384     10.35284     15.36773         0.802160     -0.016779      0.272725
C      5.61067      6.59456     10.35284        -0.092726     -0.729371      0.133405
C     15.36773      6.59456     10.62556         0.188279     -1.006186     -0.010179
C      5.61067     14.38384     10.62556        -0.268333      1.011017      0.006491
C     15.36773     14.38384     10.35284         0.174881      1.130286      0.002582
C      5.61067     10.35284      6.59456        -0.724666      0.057374     -1.972686
C     15.36773     10.62556      6.59456         0.663216      0.015862     -1.956502
C      5.61067     10.62556     14.38384        -0.792129     -0.001679      1.966473
C     15.36773     10.35284     14.38384         0.614470     -0.090776      1.561117
C     10.35284      6.59456      5.61067         0.031918     -1.556462     -0.812337
C     10.62556      6.59456     15.36773         0.008995     -1.657802      1.048905
C     10.62556     14.38384      5.61067         0.040929      1.708008     -0.860156
C     10.35284     14.38384     15.36773        -0.063143      1.772362      1.011858
C      6.59456      5.61067     10.35284        -0.321294     -0.871894     -0.171249
C      6.59456     15.36773     10.62556        -1.553048      0.694933      0.047248
C     14.38384      5.61067     10.62556         1.483385     -0.661590     -0.023467
C     14.38384     15.36773     10.35284         0.327465      1.045456     -0.031726
C     10.40319      3.19606      7.29314        -0.004684      0.573410     -0.380078
C     10.35913      4.25547      6.23373         0.064261     -0.846827      0.630989
C      0.08601      7.29314      7.29314        -0.000610     -0.492994     -0.358868
C      0.13007      6.23373      6.23373        -0.055328      0.851550      0.618143
C      0.08601      3.19606      3.19606        -0.041202      0.544376      0.351298
C      0.13007      4.25547      4.25547        -0.024735     -0.956936     -0.476936
C     10.40319      7.29314      3.19606         0.053517     -0.493462      0.367237
C     10.35913      6.23373      4.25547         0.057391      0.750981     -0.552081
C      7.29314     10.40319      3.19606        -0.351525      0.012015      0.679111
C      6.23373     10.35913      4.25547         0.258293     -0.040076     -0.367881
C      7.29314      0.08601      7.29314        -0.336549      0.018356     -0.439903
C      6.23373      0.13007      6.23373         0.127385      0.016467      0.478851
C      3.19606      0.08601      3.19606         0.308075      0.008806      0.712081
C      4.25547      0.13007      4.25547        -0.281692      0.083574     -0.382390
C      3.19606     10.40319      7.29314         0.345348      0.007491     -0.599524
C      4.25547     10.35913      6.23373        -0.276706      0.019158      0.604649
C      3.19606      7.29314     10.40319         0.258344     -0.438740      0.004964
C      4.25547      6.23373     10.35913        -0.720678      0.335575      0.013745
C      7.29314      7.29314      0.08601        -0.436632     -0.222707     -0.000153
C      6.23373      6.23373      0.13007         0.081004      0.306529     -0.033295
C      3.19606      3.19606      0.08601         0.404491      0.231367     -0.017901
C      4.25547      4.25547      0.13007        -0.069477     -0.238453     -0.018800
C      7.29314      3.19606     10.40319        -0.323033      0.572154     -0.015782
C      6.23373      4.25547     10.35913         0.746061     -0.525018      0.040070
O     10.43466      3.58206      8.50569        -0.009779      0.182795      0.372515
O     10.54374     17.39634      8.50569         0.000911     -0.204869      0.363007
O     10.54374      3.58206     12.47271         0.072673      0.186373     -0.341542
O     10.43466     17.39634     12.47271        -0.104114     -0.210091     -0.348861
O      8.50569     10.43466      3.58206         0.433604     -0.020830      0.093594
O      8.50569     10.54374     17.39634         0.473752      0.054063     -0.140227
O     12.47271     10.54374      3.58206        -0.376980      0.008877      0.068798
O     12.47271     10.43466     17.39634        -0.453846     -0.053660     -0.121905
O      3.58206      8.50569     10.43466         0.138596      0.464818     -0.041377
O     17.39634      8.50569     10.54374        -0.107897      0.441840      0.035348
O      3.58206     12.47271     10.54374         0.084245     -0.410117      0.051016
O     17.39634     12.47271     10.43466        -0.219473     -0.594080      0.003436
O      3.58206     10.43466      8.50569         0.226551     -0.016510      0.542787
O     17.39634     10.54374      8.50569        -0.160907     -0.003778      0.480226
O      3.58206     10.54374     12.47271         0.335149      0.014454     -0.592879
O     17.39634     10.43466     12.47271        -0.223698     -0.004797     -0.617277
O     10.43466      8.50569      3.58206         0.031062      0.541290      0.270470
O     10.54374      8.50569     17.39634         0.071412      0.554172     -0.273084
O     10.54374     12.47271      3.58206         0.005740     -0.615119      0.280398
O     10.43466     12.47271     17.39634        -0.050531     -0.600172     -0.285747
O      8.50569      3.58206     10.43466         0.538262      0.141244     -0.034592
O      8.50569     17.39634     10.54374         0.529767     -0.170582      0.040273
O     12.47271      3.58206     10.54374        -0.527725      0.179100      0.002852
O     12.47271     17.39634     10.43466        -0.517138     -0.173318     -0.023372
O     11.90042     11.90042     19.56718        -0.293696     -0.299448      0.263112
O     19.56718     19.56718     19.56718         0.302319      0.288377      0.270676
O     19.56718     11.90042     11.90042         0.305746     -0.323150     -0.256135
O     11.90042     19.56718     11.90042        -0.293728      0.313029     -0.244562
O      9.45224      1.03696      9.45224        -0.046715      0.036636     -0.083816
O      1.03696      9.45224      9.45224         0.054034     -0.047710     -0.076373
O      1.03696      1.03696      1.03696         0.069890      0.036590      0.108842
O      9.45224      9.45224      1.03696        -0.049116     -0.060312      0.104395
Zr     10.48920      2.52580     10.48920        -0.128520     -0.070950      0.007655
Zr     10.48920     18.45260     10.48920         0.104294      0.109630     -0.045928
Zr     10.48920     10.48920      2.52580        -0.035775      0.036536     -0.247400
Zr     10.48920     10.48920     18.45260        -0.003985     -0.010456      0.199880
Zr      2.52580     10.48920     10.48920        -0.118433     -0.027969     -0.107992
Zr     18.45260     10.48920     10.48920         0.170941      0.061307     -0.090270
Pd     13.28193      8.35182      7.99446        -0.007451     -0.073965     -0.159149
Pd      9.01852     14.35669     11.98335         0.029810     -0.033877     -0.067378
Pd     12.21883     11.21008     10.58272        -0.031573     -0.028440     -0.050355
Pd     14.65550     10.78779     11.71200        -0.043087     -0.057396     -0.092884
Pd     11.18094      9.20121      6.44282        -0.036646      0.091223     -0.070479
Pd      6.94897      7.84375      8.50339        -0.028884     -0.014482      0.089670
Ir      9.99295     11.83196     11.89621         0.011208     -0.173435     -0.036741
Ir     13.14059      8.67798     10.64562         0.036247     -0.127343     -0.000623
Ir     12.18166     11.13963      7.91796         0.016070      0.007464      0.031320
Ir      9.08722     14.13470      9.27010         0.266896      0.108193     -0.156574
Ir     10.85867      9.30535     11.85782         0.069994     -0.033141      0.009741
Ir      8.71805      9.74944      7.92338         0.041651     -0.037157     -0.056181
Ir     13.59041     12.95740      9.09636         0.001888     -0.161911      0.093427
Ir     11.45567     13.55349      7.92191        -0.022438      0.095712     -0.069883
Ir     14.30651     10.45651      9.22621        -0.004922     -0.067843      0.049006
Ir      9.50706      7.30109     10.58284         0.167932     -0.028687      0.055830
Ir      7.82281     12.27604      7.89721         0.141256      0.020512      0.059376
Ir      9.50829      7.41814      8.02076        -0.026665      0.033472      0.155133
Ir     11.50390     13.65045     13.19903         0.025364      0.046005     -0.158632
Ir     11.82218      6.96043     12.06385        -0.076889      0.012353     -0.053681
Ir      9.95670     11.67324      9.23461         0.086745      0.244704      0.028069
Ir     13.25006      8.71885     13.24216        -0.093452     -0.134084     -0.043377
Ir     10.96297      9.19788      9.21379        -0.066055     -0.092949     -0.024287
Ir     11.27750     13.73388     10.50854         0.039616     -0.091009     -0.085569
Ir     13.47602     13.18093     11.89928         0.049682     -0.083341     -0.073337
Ir     12.24579     11.22039     13.23289         0.028858     -0.013588     -0.021142
Ir      9.97671     11.54705      6.60825         0.063842      0.043988      0.090718
Ir     11.72122      6.75849      9.51069        -0.000099      0.076086     -0.048259
Ir      7.30883      7.88031     11.93149         0.067475      0.025402     -0.043704
Ir      7.79787     12.34383     10.55650         0.071608      0.044856     -0.023678
Ir     11.00888      9.33137     14.39440        -0.055111      0.000028      0.042474
Ir      7.73620     12.20191     13.13903         0.144433      0.026028     -0.100218
Ir      6.55612     10.40082      9.28767        -0.105237      0.171278     -0.094800
Ir      8.67068      9.75371     13.20960        -0.033763      0.052867      0.100527
Ir      6.42713     10.31437     11.66657        -0.055253     -0.013339      0.124958
Ir      9.27651      7.24124     13.20192         0.089219      0.001637     -0.021491
Ir      9.91108     11.60456     14.45521         0.186304      0.035120     -0.003990
Ir      8.66384      9.75509     10.56396         0.148363     -0.095037      0.048347
