152
# total energy = -1060.52971312 eVH     10.35389      5.87395      7.64558        -0.211898      0.145985      0.992383
H     10.62451     15.10445      7.64558         0.275722     -0.097751      0.795706
H     10.62451      5.87395     13.33282        -0.289940      0.084867     -0.700457
H     10.35389     15.10445     13.33282         0.148450     -0.286200     -0.733315
H      7.64558     10.35389      5.87395         0.832872     -0.193104      0.218121
H      7.64558     10.62451     15.10445         0.246635      0.038494     -0.059140
H     13.33282     10.62451      5.87395        -0.736889      0.030993      0.151233
H     13.33282     10.35389     15.10445        -0.312526     -0.095155     -0.033303
H      5.87395      7.64558     10.35389         0.103621      0.410393      0.005503
H     15.10445      7.64558     10.62451        -0.101236      0.709618      0.258486
H      5.87395     13.33282     10.62451         0.004102     -0.868706      0.101343
H     15.10445     13.33282     10.35389        -0.211606     -0.397206      0.035160
H      5.87395     10.35389      7.64558         0.280725      0.057377      0.358600
H     15.10445     10.62451      7.64558        -0.144037     -0.137105      0.551053
H      5.87395     10.62451     13.33282        -0.027916      0.385828     -0.700723
H     15.10445     10.35389     13.33282         0.168642     -0.434311     -0.899968
H     10.35389      7.64558      5.87395         0.002570      0.503018      0.349939
H     10.62451      7.64558     15.10445         0.228145      0.644038     -0.108083
H     10.62451     13.33282      5.87395         0.024278     -0.567441      0.205252
H     10.35389     13.33282     15.10445         0.066805     -0.361156     -0.122007
H      7.64558      5.87395     10.35389         0.434981      0.140810      0.056536
H      7.64558     15.10445     10.62451         0.390283     -0.130318      0.217248
H     13.33282      5.87395     10.62451        -0.307825      0.118341     -0.009843
H     13.33282     15.10445     10.35389        -0.631038     -0.198561      0.210353
H     12.45634     12.45634     19.01126         0.259560      0.267201     -0.224035
H     19.01126     19.01126     19.01126        -0.249024     -0.269944     -0.235927
H     19.01126     12.45634     12.45634        -0.241226      0.267321      0.243409
H     12.45634     19.01126     12.45634         0.295348     -0.223147      0.237062
C     10.35284      5.61067      6.59456         0.389931     -0.313694     -1.172601
C     10.62556     15.36773      6.59456        -0.277278      0.650172     -0.585067
C     10.62556      5.61067     14.38384         0.333858     -0.277656      0.741904
C     10.35284     15.36773     14.38384        -0.197397      0.333114      0.899512
C      6.59456     10.35284      5.61067        -1.141333     -0.008161     -0.206980
C      6.59456     10.62556     15.36773        -0.659395      0.062212      0.362985
C     14.38384     10.62556      5.61067         1.317254     -0.096946     -0.609296
C     14.38384     10.35284     15.36773         0.316194     -0.123887      0.408813
C      5.61067      6.59456     10.35284        -0.284020     -0.596463     -0.006941
C     15.36773      6.59456     10.62556         0.337360     -0.945825     -0.207801
C      5.61067     14.38384     10.62556        -0.205957      0.995009     -0.291454
C     15.36773     14.38384     10.35284         0.442623      0.826750     -0.091188
C      5.61067     10.35284      6.59456        -0.275810     -0.111695     -0.535285
C     15.36773     10.62556      6.59456         0.259998      0.124569     -0.481063
C      5.61067     10.62556     14.38384        -0.299588     -0.147585      1.213617
C     15.36773     10.35284     14.38384         0.171852      0.140548      1.219883
C     10.35284      6.59456      5.61067        -0.031466     -0.642158     -0.415260
C     10.62556      6.59456     15.36773        -0.029496     -0.774774      0.369025
C     10.62556     14.38384      5.61067        -0.460285      0.423126     -0.770668
C     10.35284     14.38384     15.36773        -0.167569      0.660514      0.469568
C      6.59456      5.61067     10.35284        -0.567483     -0.326817      0.047434
C      6.59456     15.36773     10.62556        -0.264649      0.503107      0.087111
C     14.38384      5.61067     10.62556         0.368371     -0.354322      0.074980
C     14.38384     15.36773     10.35284         1.041721      0.349572     -0.102888
C     10.40319      3.19606      7.29314        -0.010949      0.876240     -0.367718
C     10.35913      4.25547      6.23373         0.046803     -0.391386      0.290621
C      0.08601      7.29314      7.29314        -0.012063     -0.532927     -0.499441
C      0.13007      6.23373      6.23373        -0.079899      0.791948      0.055339
C      0.08601      3.19606      3.19606        -0.010880      0.600819      0.270992
C      0.13007      4.25547      4.25547         0.071967     -0.233050     -0.607295
C     10.40319      7.29314      3.19606        -0.042331     -1.084051      0.810786
C     10.35913      6.23373      4.25547        -0.030980      0.357411     -0.223721
C      7.29314     10.40319      3.19606        -0.972669     -0.053155      0.299632
C      6.23373     10.35913      4.25547         0.372597      0.106363     -0.517148
C      7.29314      0.08601      7.29314        -0.786613      0.018754     -0.380558
C      6.23373      0.13007      6.23373         0.172719      0.078997      0.122779
C      3.19606      0.08601      3.19606         0.585482      0.006307      0.186659
C      4.25547      0.13007      4.25547        -0.207326     -0.087173     -0.252151
C      3.19606     10.40319      7.29314         0.494398     -0.035802     -0.975672
C      4.25547     10.35913      6.23373        -0.147216     -0.010372      0.163392
C      3.19606      7.29314     10.40319         0.690732     -0.428225      0.008776
C      4.25547      6.23373     10.35913        -0.112483      0.167399      0.000178
C      7.29314      7.29314      0.08601        -0.393546     -0.305164     -0.024166
C      6.23373      6.23373      0.13007         0.242384      0.131392     -0.153504
C      3.19606      3.19606      0.08601         0.325119      0.552577     -0.021732
C      4.25547      4.25547      0.13007        -0.438378     -0.292457     -0.002638
C      7.29314      3.19606     10.40319        -0.277302      0.624000      0.003821
C      6.23373      4.25547     10.35913         0.021554     -0.175960      0.018686
O     10.43466      3.58206      8.50569        -0.036913      0.046918      0.249716
O     10.54374     17.39634      8.50569         0.063084     -0.064887      0.492558
O     10.54374      3.58206     12.47271         0.033351      0.124450     -0.444995
O     10.43466     17.39634     12.47271         0.075045     -0.042825     -0.498528
O      8.50569     10.43466      3.58206         0.665686     -0.081439      0.056622
O      8.50569     10.54374     17.39634         0.780551      0.081964     -0.120508
O     12.47271     10.54374      3.58206        -0.571747      0.114397      0.195689
O     12.47271     10.43466     17.39634        -0.349425     -0.002432      0.040921
O      3.58206      8.50569     10.43466         0.016672      0.446103     -0.077649
O     17.39634      8.50569     10.54374        -0.097906      0.443632      0.041614
O      3.58206     12.47271     10.54374         0.132332     -0.611579     -0.004703
O     17.39634     12.47271     10.43466        -0.235857     -0.734689     -0.008121
O      3.58206     10.43466      8.50569         0.173590     -0.043221      0.807690
O     17.39634     10.54374      8.50569         0.002787      0.034578      0.320344
O      3.58206     10.54374     12.47271         0.008483      0.005339     -0.304518
O     17.39634     10.43466     12.47271        -0.030399      0.002593     -0.341645
O     10.43466      8.50569      3.58206        -0.098757      0.553591     -0.078304
O     10.54374      8.50569     17.39634         0.050859      0.609818     -0.081763
O     10.54374     12.47271      3.58206         0.097335     -0.555753      0.108955
O     10.43466     12.47271     17.39634        -0.053326     -0.822111     -0.297925
O      8.50569      3.58206     10.43466         0.371897      0.024408     -0.063691
O      8.50569     17.39634     10.54374         0.570915     -0.136364      0.054677
O     12.47271      3.58206     10.54374        -0.501141      0.124064      0.027162
O     12.47271     17.39634     10.43466        -0.618348     -0.093145      0.050097
O     11.90042     11.90042     19.56718        -0.271442     -0.278797      0.223020
O     19.56718     19.56718     19.56718         0.294284      0.313243      0.286545
O     19.56718     11.90042     11.90042         0.270194     -0.310992     -0.256374
O     11.90042     19.56718     11.90042        -0.314159      0.207649     -0.208979
O      9.45224      1.03696      9.45224        -0.122258      0.144730     -0.044289
O      1.03696      9.45224      9.45224         0.149246     -0.144646     -0.052287
O      1.03696      1.03696      1.03696         0.082222      0.093107      0.073761
O      9.45224      9.45224      1.03696        -0.096089     -0.133849      0.131461
Zr     10.48920      2.52580     10.48920         0.041091     -0.174796      0.173858
Zr     10.48920     18.45260     10.48920        -0.181821      0.233298     -0.386788
Zr     10.48920     10.48920      2.52580         0.134279      0.388401     -0.246543
Zr     10.48920     10.48920     18.45260        -0.004483     -0.253963      0.308609
Zr      2.52580     10.48920     10.48920        -0.322560      0.091233      0.265897
Zr     18.45260     10.48920     10.48920         0.196691     -0.149212     -0.027098
Pd      9.30658     14.39900      9.17396        -0.017617     -0.017374     -0.004879
Pd      8.55451     13.69946     13.11463        -0.054900     -0.073498      0.141571
Pd     12.00969     14.37477      8.86168         0.009908     -0.005573     -0.027433
Pd     12.51424     12.80560     10.86729         0.012903      0.043992     -0.050948
Pd     12.09005      7.13137     12.51402        -0.036177     -0.045191      0.005461
Pd     11.01984     15.11249     11.32198         0.001526      0.006536      0.014890
Pd      9.87924     12.75223     11.03344        -0.083314      0.040074     -0.064923
Pd     13.57883     12.30102      8.07145        -0.028761      0.023223      0.070498
Pd     11.56871     11.68385      6.18778         0.043436     -0.046688      0.081084
Pd      7.83817      8.17332      7.47818        -0.010264      0.027479     -0.010623
Pd      8.73228     11.80702      6.84188        -0.017358      0.008759      0.018795
Pd     10.02363      9.58002      8.22182         0.067557     -0.014547     -0.065155
Pd      8.46556     14.50404      6.65122         0.058928      0.001332      0.018039
Pd     12.30497      9.26211      7.03129        -0.040725     -0.090847     -0.084535
Pd      9.87084      9.66309      5.58907         0.060897      0.030267     -0.025007
Pd      6.92735      9.40541     12.23743        -0.012561     -0.019858     -0.009695
Pd     12.28656      6.71571      7.89490        -0.010935     -0.032877     -0.020814
Pd      5.84617     10.46895      9.84909        -0.009668      0.026067     -0.010948
Pd      7.53933      6.99572     13.22896        -0.005145      0.001069      0.014154
Ir     11.49091      9.66032     13.10979        -0.040012      0.092981      0.064829
Ir     13.35540      9.19338     11.50288         0.103173      0.069624     -0.129535
Ir      9.19190      8.80750     14.00453         0.031284     -0.007152      0.008415
Ir     10.36252     10.75216     15.16406         0.009235     -0.048881     -0.092054
Ir      7.25072     11.98813     11.47416        -0.020467     -0.017158      0.028197
Ir     14.58376     11.09785     10.43293        -0.044711     -0.077942     -0.021931
Ir     12.29365     10.51297      9.48331         0.053832     -0.077137      0.092192
Ir      8.91258     11.06899     12.98481         0.015080     -0.009129      0.028354
Ir     10.08046     10.00966     10.96988         0.017520      0.010345     -0.085363
Ir     13.47664     11.39846     12.74163        -0.020667     -0.058069     -0.036574
Ir     11.21706     12.20087     13.20719        -0.094023     -0.045647      0.034231
Ir      8.34421     11.27824      9.34293         0.001794      0.036668      0.006606
Ir     11.53055      8.02334     10.01094        -0.081144      0.033590      0.007908
Ir      7.12047     13.17599      8.53999         0.012955      0.002146     -0.049732
Ir      9.44742      6.98063      9.23241         0.054540      0.069917      0.012495
Ir      7.98770      8.85755      9.98245        -0.045392      0.010954      0.087373
Ir     10.71656     12.13055      8.56883        -0.081983      0.098367      0.061152
Ir      9.51203      7.69882     11.72528        -0.000913      0.039466     -0.105994
Ir     13.85811      8.53219      9.07889        -0.017928     -0.009478     -0.049435
