152
# total energy = -1003.24060594 eVH     10.35389      5.87395      7.64558        -0.101365      0.182454      0.836491
H     10.62451     15.10445      7.64558        -0.381360     -0.081201      1.147131
H     10.62451      5.87395     13.33282         0.068927      0.002916     -0.898973
H     10.35389     15.10445     13.33282        -0.042486     -0.177763     -0.759038
H      7.64558     10.35389      5.87395         0.639510      0.143456     -0.101852
H      7.64558     10.62451     15.10445         0.859820      0.573819      0.006213
H     13.33282     10.62451      5.87395        -0.721770      0.059281      0.214706
H     13.33282     10.35389     15.10445        -0.638354     -0.163985      0.005955
H      5.87395      7.64558     10.35389        -0.074397      1.784852      0.363687
H     15.10445      7.64558     10.62451        -0.037501      1.006491     -0.035381
H      5.87395     13.33282     10.62451         0.192865     -0.842994      0.143263
H     15.10445     13.33282     10.35389         0.009415     -1.105506     -0.156024
H      5.87395     10.35389      7.64558        -0.400925      0.211927      1.100669
H     15.10445     10.62451      7.64558         0.104920      0.774701      1.541542
H      5.87395     10.62451     13.33282        -0.044989      0.495052     -1.317477
H     15.10445     10.35389     13.33282         0.746311      0.105357     -1.031514
H     10.35389      7.64558      5.87395         0.403459      1.420869     -0.067531
H     10.62451      7.64558     15.10445         0.566216      1.111956     -0.018795
H     10.62451     13.33282      5.87395        -0.493484     -0.786626      0.099996
H     10.35389     13.33282     15.10445        -0.094130     -0.428841     -0.154231
H      7.64558      5.87395     10.35389         1.074903     -0.186189     -0.204813
H      7.64558     15.10445     10.62451         0.623291     -0.212810      0.037841
H     13.33282      5.87395     10.62451        -0.932294      0.049015      0.336758
H     13.33282     15.10445     10.35389        -0.345589     -0.101147     -0.035546
H     12.45634     12.45634     19.01126         0.265570      0.233658     -0.247993
H     19.01126     19.01126     19.01126        -0.266736     -0.259892     -0.225823
H     19.01126     12.45634     12.45634        -0.269444      0.257161      0.233082
H     12.45634     19.01126     12.45634         0.258418     -0.270264      0.229158
C     10.35284      5.61067      6.59456        -0.116725     -0.974012     -0.911886
C     10.62556     15.36773      6.59456         0.183906      0.412472     -0.803487
C     10.62556      5.61067     14.38384        -0.181115     -0.742533      0.954386
C     10.35284     15.36773     14.38384         0.048625      0.276275      0.825289
C      6.59456     10.35284      5.61067        -1.063911      0.149039     -0.754675
C      6.59456     10.62556     15.36773        -0.881909      0.194819      0.756089
C     14.38384     10.62556      5.61067         0.841791      0.123577     -0.832809
C     14.38384     10.35284     15.36773         1.260530      0.066082      0.706464
C      5.61067      6.59456     10.35284        -0.779267     -0.939688     -0.015817
C     15.36773      6.59456     10.62556         0.551218     -0.069976     -0.087842
C      5.61067     14.38384     10.62556        -0.412567      0.946455     -0.056410
C     15.36773     14.38384     10.35284         0.413271      1.282686     -0.077812
C      5.61067     10.35284      6.59456        -0.245059     -0.035681     -1.355541
C     15.36773     10.62556      6.59456         0.368011     -0.073748     -1.183533
C      5.61067     10.62556     14.38384        -0.476563     -0.007432      0.982247
C     15.36773     10.35284     14.38384         0.114480     -0.054959      1.509183
C     10.35284      6.59456      5.61067        -0.060782     -1.239002     -0.604342
C     10.62556      6.59456     15.36773        -0.042554     -0.915458      0.745482
C     10.62556     14.38384      5.61067        -0.038013      1.013722     -0.737450
C     10.35284     14.38384     15.36773        -0.029835      0.415786      0.323248
C      6.59456      5.61067     10.35284        -0.691735     -1.182766      0.148664
C      6.59456     15.36773     10.62556        -0.724413      0.478937      0.035204
C     14.38384      5.61067     10.62556         0.308098     -0.669562     -0.195242
C     14.38384     15.36773     10.35284         0.207134      0.505441     -0.020900
C     10.40319      3.19606      7.29314        -0.026182      0.303297     -0.998112
C     10.35913      4.25547      6.23373        -0.034770     -0.483225      0.151923
C      0.08601      7.29314      7.29314        -0.048909     -0.852027     -0.306108
C      0.13007      6.23373      6.23373         0.015820      0.399838      0.593523
C      0.08601      3.19606      3.19606        -0.001943      0.787625      0.439877
C      0.13007      4.25547      4.25547         0.021137     -0.556217     -0.381226
C     10.40319      7.29314      3.19606        -0.039014     -0.538953      0.230593
C     10.35913      6.23373      4.25547         0.015861      0.256938     -0.620275
C      7.29314     10.40319      3.19606        -0.403606     -0.000046      0.189535
C      6.23373     10.35913      4.25547         0.230934     -0.040566     -0.291780
C      7.29314      0.08601      7.29314        -0.939374     -0.088886     -0.332050
C      6.23373      0.13007      6.23373         0.598050     -0.221725      0.437397
C      3.19606      0.08601      3.19606         0.883244     -0.045054      0.270076
C      4.25547      0.13007      4.25547        -0.521180     -0.229752     -0.399009
C      3.19606     10.40319      7.29314         0.359161      0.005984     -0.179600
C      4.25547     10.35913      6.23373        -0.253644     -0.028766      0.299934
C      3.19606      7.29314     10.40319         0.307802     -0.453243      0.010943
C      4.25547      6.23373     10.35913        -0.880325      0.069607      0.088461
C      7.29314      7.29314      0.08601        -0.424977     -0.359939     -0.026218
C      6.23373      6.23373      0.13007         0.709296      0.081162      0.018096
C      3.19606      3.19606      0.08601         0.755022      0.363725     -0.021498
C      4.25547      4.25547      0.13007        -0.106169     -0.803526     -0.050701
C      7.29314      3.19606     10.40319        -0.481174      0.464608     -0.001080
C      6.23373      4.25547     10.35913         0.363950     -0.771777      0.072945
O     10.43466      3.58206      8.50569         0.103168      0.275233      0.826124
O     10.54374     17.39634      8.50569         0.039203     -0.081406      0.322281
O     10.54374      3.58206     12.47271         0.049891      0.069724     -0.408310
O     10.43466     17.39634     12.47271        -0.034672     -0.123384     -0.381136
O      8.50569     10.43466      3.58206         0.559159     -0.043469      0.192599
O      8.50569     10.54374     17.39634         0.828966     -0.047540     -0.212212
O     12.47271     10.54374      3.58206        -0.804445      0.155832      0.244893
O     12.47271     10.43466     17.39634        -0.476248      0.003735     -0.185165
O      3.58206      8.50569     10.43466         0.189525      0.608034     -0.029033
O     17.39634      8.50569     10.54374        -0.152761      0.533062      0.035838
O      3.58206     12.47271     10.54374         0.090495     -0.449459      0.040899
O     17.39634     12.47271     10.43466        -0.153890     -0.566714     -0.031980
O      3.58206     10.43466      8.50569         0.158365     -0.018813      0.349281
O     17.39634     10.54374      8.50569        -0.014676      0.087749      0.313712
O      3.58206     10.54374     12.47271         0.055752      0.045507     -0.306570
O     17.39634     10.43466     12.47271        -0.124591     -0.029643     -0.328549
O     10.43466      8.50569      3.58206        -0.050854      0.620453      0.200314
O     10.54374      8.50569     17.39634        -0.075830      0.758413     -0.187986
O     10.54374     12.47271      3.58206         0.135093     -0.732257      0.184923
O     10.43466     12.47271     17.39634        -0.037933     -0.290111      0.013511
O      8.50569      3.58206     10.43466         0.648386      0.163771     -0.045566
O      8.50569     17.39634     10.54374         0.574931     -0.188660      0.009660
O     12.47271      3.58206     10.54374        -0.728432      0.112584      0.012696
O     12.47271     17.39634     10.43466        -0.542880     -0.133985     -0.035023
O     11.90042     11.90042     19.56718        -0.309877     -0.244011      0.265419
O     19.56718     19.56718     19.56718         0.300484      0.310315      0.231415
O     19.56718     11.90042     11.90042         0.340391     -0.277569     -0.248465
O     11.90042     19.56718     11.90042        -0.304727      0.348220     -0.238009
O      9.45224      1.03696      9.45224        -0.026940      0.119075     -0.092730
O      1.03696      9.45224      9.45224         0.056495     -0.023177     -0.101314
O      1.03696      1.03696      1.03696         0.038143      0.110696      0.094903
O      9.45224      9.45224      1.03696        -0.039782     -0.018805      0.102591
Zr     10.48920      2.52580     10.48920        -0.174114     -0.350604      0.147558
Zr     10.48920     18.45260     10.48920         0.079995      0.078326      0.076954
Zr     10.48920     10.48920      2.52580        -0.135063     -0.162310     -0.354408
Zr     10.48920     10.48920     18.45260         0.119428      0.039918      0.275981
Zr      2.52580     10.48920     10.48920        -0.112803     -0.147938     -0.022791
Zr     18.45260     10.48920     10.48920         0.086950     -0.013819      0.053987
Pd     12.08493      8.43906     10.18176         0.013970      0.062117     -0.018370
Pd      7.19633      9.58242     10.62274        -0.017273      0.119608     -0.077382
Pd      7.08767     11.86678     11.95926        -0.042322     -0.029745      0.005444
Pd     12.03374     13.62276      7.61037         0.088548     -0.029618     -0.084674
Pd     11.59334      8.09467      7.52456         0.020196     -0.058392      0.037678
Pd      8.76894      7.40437      7.09197        -0.086080      0.114946      0.117830
Pd     11.61924     11.55203      5.97202         0.070445     -0.093987      0.007147
Pd     13.92496      9.19591      7.68605         0.104526     -0.120793     -0.049599
Pd      9.51782     11.95633      7.70778         0.132731      0.038895      0.094892
Pd      7.17630      7.14138     12.03524        -0.192601     -0.024862     -0.064772
Pd      6.89074      7.56440      8.77285         0.017135     -0.010980     -0.036333
Pd      7.34180      9.27905     13.50992         0.044095     -0.006827     -0.098452
Pd     11.38300      5.92321      9.22145        -0.009111     -0.128364      0.036394
Pd      9.82197      9.73670      6.30009         0.057516      0.011379      0.018561
Pd      9.14214     14.12256      9.13225        -0.021599      0.031338      0.011620
Pd     11.33107      6.51437     11.78262        -0.137885      0.056948      0.033242
Pd      9.81160      9.30345      9.11787         0.129524      0.004935      0.021430
Pd      9.24198     11.55464     10.33286        -0.056823     -0.027571      0.028271
Pd      9.23140      7.01989     10.23030        -0.000102     -0.042230     -0.145397
Pd      8.94269      7.18957     13.93736         0.045799      0.045112     -0.048358
Pd      9.40988      9.05910     11.83265         0.133291     -0.007798     -0.015262
Pd     11.90901     10.81831      8.52552         0.056991     -0.056040     -0.063586
Pd      7.02066     12.26959      9.22356         0.020598     -0.012435     -0.097843
Pd      7.66841      9.94932      8.00911         0.087593     -0.034308     -0.033168
Pd     13.82522      6.84757      8.73239         0.032023     -0.059280      0.107515
Pd     13.72360      7.66044     12.20536        -0.038225      0.018096      0.035022
Pd      9.39714     11.39857     13.13702        -0.064484     -0.000158     -0.080354
Pd     14.04728     12.35886      8.73746        -0.031982      0.026100      0.021785
Pd     13.44387     10.23052     12.72190        -0.052150      0.099320     -0.039879
Pd     14.13419     10.06636     10.20382        -0.069427      0.019944     -0.035760
Pd     11.45899     10.82198     11.31123         0.074679     -0.131828      0.029427
Pd     11.45365     13.23133     10.08566        -0.050505     -0.097556     -0.034224
Pd     13.69716     12.48438     11.41115        -0.047248      0.032094     -0.021585
Pd     11.59545     13.23764     12.75024        -0.004654     -0.159552      0.043358
Pd     11.65285     11.22169     14.43616         0.004074     -0.008153      0.112922
Pd     11.41970      8.70096     13.35074         0.111406     -0.065823     -0.022716
Pd      9.59804      9.65274     15.15574         0.004740     -0.036034     -0.105642
Pd      9.16639     13.73738     11.78549        -0.102136      0.049229      0.038865
