152
# total energy = -1022.84601385 eVH     10.35389      5.87395      7.64558         0.471133      0.021282      0.888209
H     10.62451     15.10445      7.64558        -0.036477      0.047943      0.759182
H     10.62451      5.87395     13.33282         0.143641      0.115821     -0.605975
H     10.35389     15.10445     13.33282        -0.240957     -0.083423     -0.548486
H      7.64558     10.35389      5.87395         0.329286     -0.035729      0.188990
H      7.64558     10.62451     15.10445         0.615159     -0.190012     -0.144478
H     13.33282     10.62451      5.87395        -0.844458     -0.330310      0.170505
H     13.33282     10.35389     15.10445        -0.441319     -0.075065     -0.070734
H      5.87395      7.64558     10.35389         0.131705      1.101786     -0.174690
H     15.10445      7.64558     10.62451        -0.171040      0.402151     -0.085807
H      5.87395     13.33282     10.62451         0.142910     -0.407565     -0.073199
H     15.10445     13.33282     10.35389        -0.075352     -0.967141     -0.200485
H      5.87395     10.35389      7.64558         0.127676      0.038116      0.483796
H     15.10445     10.62451      7.64558         0.109060     -0.207191      0.813993
H      5.87395     10.62451     13.33282         0.270826     -0.027964     -0.391153
H     15.10445     10.35389     13.33282        -0.160307      0.018117     -0.617211
H     10.35389      7.64558      5.87395         0.063553      0.887064      0.104920
H     10.62451      7.64558     15.10445         0.025992      0.554591     -0.143273
H     10.62451     13.33282      5.87395         0.059865     -0.594441      0.175456
H     10.35389     13.33282     15.10445        -0.246778     -0.904734     -0.115152
H      7.64558      5.87395     10.35389         0.528768      0.044887     -0.136649
H      7.64558     15.10445     10.62451         0.931867     -0.198730      0.302886
H     13.33282      5.87395     10.62451        -0.437829      0.186265     -0.059697
H     13.33282     15.10445     10.35389        -1.055387     -0.097001      0.278467
H     12.45634     12.45634     19.01126         0.266407      0.256995     -0.225169
H     19.01126     19.01126     19.01126        -0.246946     -0.235553     -0.262058
H     19.01126     12.45634     12.45634        -0.239899      0.271038      0.239699
H     12.45634     19.01126     12.45634         0.210238     -0.283303      0.253094
C     10.35284      5.61067      6.59456        -0.104212     -0.450650     -0.393430
C     10.62556     15.36773      6.59456         0.016572      0.361066     -1.135869
C     10.62556      5.61067     14.38384        -0.030503     -0.220049      0.725815
C     10.35284     15.36773     14.38384         0.174836      0.770077      0.148363
C      6.59456     10.35284      5.61067        -0.407065     -0.041600     -0.178264
C      6.59456     10.62556     15.36773        -0.777945      0.149571      0.346110
C     14.38384     10.62556      5.61067         0.597245      0.295281     -0.363680
C     14.38384     10.35284     15.36773         0.710517     -0.118581      0.426553
C      5.61067      6.59456     10.35284        -0.425639     -0.729671      0.280385
C     15.36773      6.59456     10.62556         0.199370     -0.458483      0.048539
C      5.61067     14.38384     10.62556        -0.262716      0.381407     -0.024546
C     15.36773     14.38384     10.35284         0.407930      0.174499      0.208828
C      5.61067     10.35284      6.59456        -0.312134     -0.018148     -0.896376
C     15.36773     10.62556      6.59456         0.580252     -0.162754     -1.231935
C      5.61067     10.62556     14.38384        -0.457646      0.007535      0.912037
C     15.36773     10.35284     14.38384         0.515863     -0.182673      1.253466
C     10.35284      6.59456      5.61067        -0.031022     -0.964253     -0.669368
C     10.62556      6.59456     15.36773         0.044504     -0.658604      0.291822
C     10.62556     14.38384      5.61067         0.047991      1.244521     -0.703311
C     10.35284     14.38384     15.36773         0.109253      0.626785      0.636819
C      6.59456      5.61067     10.35284        -0.216948     -0.886603      0.132679
C      6.59456     15.36773     10.62556        -1.730419      0.492659      0.033180
C     14.38384      5.61067     10.62556         0.584217     -0.229521     -0.008368
C     14.38384     15.36773     10.35284         0.235656      0.543314     -0.241579
C     10.40319      3.19606      7.29314         0.014658      0.891584     -0.251685
C     10.35913      4.25547      6.23373        -0.058028     -0.364307      0.608191
C      0.08601      7.29314      7.29314        -0.008887     -0.239459     -0.465246
C      0.13007      6.23373      6.23373        -0.001819      0.119350      0.203411
C      0.08601      3.19606      3.19606        -0.017053      0.646837      0.186584
C      0.13007      4.25547      4.25547        -0.088737     -0.199546     -0.167667
C     10.40319      7.29314      3.19606        -0.003116     -0.689030      0.521197
C     10.35913      6.23373      4.25547        -0.014786      0.497733     -0.414847
C      7.29314     10.40319      3.19606        -0.338876      0.023041      0.883305
C      6.23373     10.35913      4.25547         0.212531      0.011331     -0.147494
C      7.29314      0.08601      7.29314        -0.306344     -0.045986     -0.279655
C      6.23373      0.13007      6.23373         0.268565     -0.057036      0.291199
C      3.19606      0.08601      3.19606         0.433469     -0.051304      1.323430
C      4.25547      0.13007      4.25547        -0.119179     -0.024228     -0.462876
C      3.19606     10.40319      7.29314         0.692358      0.014233     -0.266046
C      4.25547     10.35913      6.23373        -0.133055      0.027876      0.101442
C      3.19606      7.29314     10.40319         0.604040     -1.266375      0.025254
C      4.25547      6.23373     10.35913        -0.726356      0.832098      0.049373
C      7.29314      7.29314      0.08601        -0.641280     -0.173832     -0.022334
C      6.23373      6.23373      0.13007         0.170587      0.273427     -0.008808
C      3.19606      3.19606      0.08601         0.240180      0.251396     -0.019860
C      4.25547      4.25547      0.13007        -0.056135     -0.038191      0.013410
C      7.29314      3.19606     10.40319        -0.370518      0.804777      0.017135
C      6.23373      4.25547     10.35913         0.866359     -0.171735      0.013098
O     10.43466      3.58206      8.50569        -0.049815      0.037679      0.324705
O     10.54374     17.39634      8.50569        -0.022233     -0.180294      0.600292
O     10.54374      3.58206     12.47271         0.054694      0.061170     -0.326636
O     10.43466     17.39634     12.47271        -0.023541     -0.126609     -0.581674
O      8.50569     10.43466      3.58206         0.373581     -0.025529     -0.018914
O      8.50569     10.54374     17.39634         0.469360      0.053045     -0.142156
O     12.47271     10.54374      3.58206        -0.279330      0.050338     -0.082501
O     12.47271     10.43466     17.39634        -0.847159      0.019593     -0.225399
O      3.58206      8.50569     10.43466         0.040947      0.915393      0.040689
O     17.39634      8.50569     10.54374        -0.043185      0.343680      0.077984
O      3.58206     12.47271     10.54374         0.064081     -0.419190      0.064054
O     17.39634     12.47271     10.43466        -0.170223     -0.782279      0.020227
O      3.58206     10.43466      8.50569        -0.052748     -0.064945      0.229615
O     17.39634     10.54374      8.50569        -0.136608      0.044067      0.464216
O      3.58206     10.54374     12.47271        -0.031406     -0.049906     -0.897897
O     17.39634     10.43466     12.47271        -0.197917      0.047143     -0.775587
O     10.43466      8.50569      3.58206         0.044566      0.675964      0.190377
O     10.54374      8.50569     17.39634         0.052902      0.438588     -0.081465
O     10.54374     12.47271      3.58206        -0.007800     -0.732852      0.224891
O     10.43466     12.47271     17.39634         0.046655     -0.841047     -0.271606
O      8.50569      3.58206     10.43466         0.487390      0.073637     -0.038739
O      8.50569     17.39634     10.54374         0.643403     -0.247559     -0.057948
O     12.47271      3.58206     10.54374        -0.484654      0.164105      0.039788
O     12.47271     17.39634     10.43466        -0.527383     -0.037369     -0.029886
O     11.90042     11.90042     19.56718        -0.304302     -0.312134      0.265834
O     19.56718     19.56718     19.56718         0.286280      0.273595      0.321504
O     19.56718     11.90042     11.90042         0.277200     -0.330646     -0.244292
O     11.90042     19.56718     11.90042        -0.227092      0.291250     -0.240319
O      9.45224      1.03696      9.45224        -0.074868      0.048483     -0.066382
O      1.03696      9.45224      9.45224         0.055834     -0.142625     -0.057140
O      1.03696      1.03696      1.03696         0.043839      0.033021      0.187615
O      9.45224      9.45224      1.03696        -0.041501     -0.090257      0.124149
Zr     10.48920      2.52580     10.48920        -0.004846     -0.074115     -0.024760
Zr     10.48920     18.45260     10.48920         0.052644      0.299070     -0.077083
Zr     10.48920     10.48920      2.52580        -0.098974      0.013359     -0.369912
Zr     10.48920     10.48920     18.45260        -0.130626     -0.154285      0.324300
Zr      2.52580     10.48920     10.48920        -0.353751      0.316861     -0.474326
Zr     18.45260     10.48920     10.48920         0.249290      0.029861     -0.271956
Pd      9.03945     10.25774     13.32181        -0.004082     -0.012825      0.003844
Pd     10.57037      9.72113     10.96960         0.008281     -0.002432     -0.024225
Pd     13.77226      8.52840     12.70081         0.001240      0.002621     -0.014254
Pd     11.00398     11.07767     15.00570         0.000444     -0.018108     -0.004892
Pd     12.85533     11.16743     12.99249         0.007882      0.007666      0.009318
Pd     15.00036     10.93241     11.34745         0.002462      0.018676     -0.009656
Pd      6.65041      7.43046     12.34510        -0.002738      0.024174     -0.001221
Pd      9.23078      7.26190     10.11908         0.008342      0.014446     -0.027886
Pd      9.26617      7.60539     12.79442         0.002325     -0.008174     -0.019089
Pd     11.70258      7.28866     11.46941        -0.001444     -0.000060     -0.015673
Pd     11.41154      7.99276      8.86783         0.027380     -0.002988     -0.010721
Pd      7.25557     11.83525     11.95978         0.003872      0.000708     -0.009124
Pd      8.87799     14.66361      9.31755         0.033793      0.004571      0.015547
Pd      8.42295     12.65334     14.32049        -0.004040     -0.008653      0.000598
Pd     13.47761     14.09690      8.58412         0.072377      0.022347     -0.032961
Pd     10.94860     13.31330      8.49691         0.061453      0.024993      0.024935
Pd     14.10659     11.53021      8.93682         0.002690      0.018975     -0.011649
Pd      8.61692     14.10585     12.09950         0.009795     -0.002968      0.003805
Pd     12.24472     13.70656     14.03139        -0.009387     -0.004586      0.001821
Pd     11.14036     14.43553     11.12251         0.028746     -0.010506      0.034972
Pd     14.04719     13.54983     12.16550        -0.011988      0.016900     -0.001105
Pd     12.29842     12.15566     10.65835         0.006224     -0.018047      0.008621
Pd     12.68515     12.34057      6.71784         0.022500      0.032485     -0.011493
Pd     13.68255      8.93702      7.95202         0.035345     -0.000979     -0.004005
Pd      6.87069      8.46876      8.84443         0.008502      0.006857     -0.004580
Pd      5.52137      9.93521     11.27465         0.005252      0.016377     -0.043796
Pd      9.15831      9.76541      8.32842         0.022473     -0.026471     -0.010783
Pd      8.84106      7.27155      7.45324        -0.028400     -0.014915     -0.028570
Pd      9.51082     12.08032     10.41930         0.013534      0.006879     -0.015526
Pd     11.56168     10.70132      8.55987         0.020169      0.012846     -0.023807
Pd     11.25546      9.21895      6.44423         0.040571     -0.021886     -0.011904
Pd      9.92276     11.54297      6.37693         0.034056     -0.024378     -0.009313
Ir     11.35141      9.10522     13.35082        -0.007700      0.009975     -0.020523
Ir     13.07295      9.49375     10.41525         0.017420      0.006617     -0.010708
Ir     10.53157     12.35899     12.69681         0.010586     -0.015602      0.023859
Ir      7.12779     10.98405      9.51210         0.046601      0.013645     -0.026232
Ir      8.39349     12.44094      8.16891         0.045648      0.011966      0.000325
Ir      8.05465      9.29172     11.11340         0.019245     -0.004078     -0.000970
