152
# total energy = -1006.00147486 eVH     10.35389      5.87395      7.64558         0.258917      0.035193      0.637584
H     10.62451     15.10445      7.64558        -0.107464     -0.141539      0.514275
H     10.62451      5.87395     13.33282         0.484773      0.121444     -0.583809
H     10.35389     15.10445     13.33282         0.077395     -0.183550     -0.554784
H      7.64558     10.35389      5.87395         0.372174      0.085755      0.164249
H      7.64558     10.62451     15.10445         0.695657      0.471840     -0.040188
H     13.33282     10.62451      5.87395        -0.532554      0.421006      0.075291
H     13.33282     10.35389     15.10445        -0.803473     -0.094212      0.008813
H      5.87395      7.64558     10.35389         0.240845      0.694797     -0.393379
H     15.10445      7.64558     10.62451        -0.095196      0.480482      0.283525
H      5.87395     13.33282     10.62451         0.159393     -0.696444     -0.156801
H     15.10445     13.33282     10.35389        -0.010255     -1.025429     -0.326996
H      5.87395     10.35389      7.64558         0.254017      0.300645      0.741532
H     15.10445     10.62451      7.64558        -0.108172      0.404370      0.760183
H      5.87395     10.62451     13.33282         0.135096      0.328234     -0.691388
H     15.10445     10.35389     13.33282        -0.054126     -0.071938     -0.688819
H     10.35389      7.64558      5.87395         0.391983      1.052951     -0.008826
H     10.62451      7.64558     15.10445         0.536069      0.536903     -0.120427
H     10.62451     13.33282      5.87395        -0.398315     -0.845586      0.186868
H     10.35389     13.33282     15.10445        -0.044892     -0.433544     -0.216744
H      7.64558      5.87395     10.35389         0.848962      0.095837     -0.290061
H      7.64558     15.10445     10.62451         0.836914     -0.196760      0.011410
H     13.33282      5.87395     10.62451        -0.804564      0.196482      0.587067
H     13.33282     15.10445     10.35389        -0.444045     -0.111340     -0.130886
H     12.45634     12.45634     19.01126         0.235357      0.270226     -0.239928
H     19.01126     19.01126     19.01126        -0.262454     -0.240626     -0.261116
H     19.01126     12.45634     12.45634        -0.266881      0.268803      0.218496
H     12.45634     19.01126     12.45634         0.232019     -0.255478      0.278706
C     10.35284      5.61067      6.59456        -0.433514     -0.735536      0.200068
C     10.62556     15.36773      6.59456         0.061875      0.368081     -0.296647
C     10.62556      5.61067     14.38384        -0.333281     -0.361523     -0.304914
C     10.35284     15.36773     14.38384        -0.009074      0.332829      0.543119
C      6.59456     10.35284      5.61067        -0.213774     -0.002476     -0.393520
C      6.59456     10.62556     15.36773        -0.263425     -0.220197      0.808695
C     14.38384     10.62556      5.61067        -0.270693     -0.400932     -0.517134
C     14.38384     10.35284     15.36773         0.977108     -0.054904      0.255320
C      5.61067      6.59456     10.35284        -0.539876      0.003054      0.172279
C     15.36773      6.59456     10.62556         0.525214      0.025157     -0.251274
C      5.61067     14.38384     10.62556        -0.339926      0.972790      0.076866
C     15.36773     14.38384     10.35284         0.318010      1.034862      0.053789
C      5.61067     10.35284      6.59456        -0.179108     -0.316751     -0.622348
C     15.36773     10.62556      6.59456         0.447271     -0.289104      0.118641
C      5.61067     10.62556     14.38384        -0.726511     -0.354038     -0.060702
C     15.36773     10.35284     14.38384         0.386011     -0.061308      1.009979
C     10.35284      6.59456      5.61067        -0.206013     -0.205762     -0.656786
C     10.62556      6.59456     15.36773        -0.267599      0.123653      0.447597
C     10.62556     14.38384      5.61067         0.205527      1.065678     -0.347674
C     10.35284     14.38384     15.36773         0.026446      0.537648      0.435476
C      6.59456      5.61067     10.35284        -0.175981     -0.641081      0.234354
C      6.59456     15.36773     10.62556        -1.023067      0.300266      0.079677
C     14.38384      5.61067     10.62556         0.493245     -0.544637     -0.365081
C     14.38384     15.36773     10.35284         0.214832      0.455231     -0.102452
C     10.40319      3.19606      7.29314         0.007766      0.693756     -0.487096
C     10.35913      4.25547      6.23373         0.085477     -0.729194     -0.016769
C      0.08601      7.29314      7.29314        -0.043965     -0.410229     -0.309269
C      0.13007      6.23373      6.23373        -0.022617      0.082596      0.568195
C      0.08601      3.19606      3.19606        -0.017563      1.249950      0.280371
C      0.13007      4.25547      4.25547         0.048982     -0.776430     -0.152481
C     10.40319      7.29314      3.19606         0.009653     -0.343856      0.354494
C     10.35913      6.23373      4.25547         0.027421      0.013528     -0.896182
C      7.29314     10.40319      3.19606        -0.358555      0.019897      0.565478
C      6.23373     10.35913      4.25547         0.208012      0.051789     -0.123789
C      7.29314      0.08601      7.29314        -0.524719     -0.064273     -0.372355
C      6.23373      0.13007      6.23373         0.680608     -0.047806      0.490570
C      3.19606      0.08601      3.19606         0.673024     -0.037099      0.565773
C      4.25547      0.13007      4.25547        -0.573887     -0.081041     -0.554071
C      3.19606     10.40319      7.29314         0.483568     -0.020241     -0.779340
C      4.25547     10.35913      6.23373        -0.496223      0.030892      0.202040
C      3.19606      7.29314     10.40319         0.284716     -1.255205      0.038567
C      4.25547      6.23373     10.35913        -0.704689      0.100632      0.153040
C      7.29314      7.29314      0.08601        -0.406999     -0.371180     -0.028125
C      6.23373      6.23373      0.13007         0.468555      0.213678     -0.020983
C      3.19606      3.19606      0.08601         0.501007      0.372345     -0.039292
C      4.25547      4.25547      0.13007        -0.150120     -0.650938     -0.034573
C      7.29314      3.19606     10.40319        -0.322130      0.422057      0.075145
C      6.23373      4.25547     10.35913         0.257608     -0.694527      0.136906
O     10.43466      3.58206      8.50569        -0.014773      0.102209      0.507741
O     10.54374     17.39634      8.50569         0.036587     -0.174645      0.482545
O     10.54374      3.58206     12.47271         0.057452     -0.083194     -0.188016
O     10.43466     17.39634     12.47271        -0.038298     -0.182775     -0.565392
O      8.50569     10.43466      3.58206         0.335718      0.003742      0.035628
O      8.50569     10.54374     17.39634         0.632437      0.033437     -0.145270
O     12.47271     10.54374      3.58206        -0.677684      0.082785      0.091847
O     12.47271     10.43466     17.39634        -0.439400      0.026986     -0.111441
O      3.58206      8.50569     10.43466         0.181969      1.032076     -0.048020
O     17.39634      8.50569     10.54374        -0.162370      0.539269      0.076406
O      3.58206     12.47271     10.54374         0.083637     -0.362646      0.048904
O     17.39634     12.47271     10.43466        -0.157567     -0.545825     -0.022743
O      3.58206     10.43466      8.50569         0.076088     -0.062016      0.593742
O     17.39634     10.54374      8.50569        -0.110746      0.065943      0.521727
O      3.58206     10.54374     12.47271         0.055975      0.051774     -0.533452
O     17.39634     10.43466     12.47271        -0.217712     -0.039916     -0.592566
O     10.43466      8.50569      3.58206        -0.039083      0.471863      0.134377
O     10.54374      8.50569     17.39634         0.048329      0.529906     -0.160900
O     10.54374     12.47271      3.58206        -0.003247     -1.005139      0.207021
O     10.43466     12.47271     17.39634         0.042004     -0.734318     -0.174508
O      8.50569      3.58206     10.43466         0.506592      0.146828     -0.053933
O      8.50569     17.39634     10.54374         0.486286     -0.197853      0.013918
O     12.47271      3.58206     10.54374        -0.641458      0.235505      0.008554
O     12.47271     17.39634     10.43466        -0.213392      0.068755     -0.056509
O     11.90042     11.90042     19.56718        -0.239709     -0.288978      0.247650
O     19.56718     19.56718     19.56718         0.310187      0.295164      0.300239
O     19.56718     11.90042     11.90042         0.290248     -0.264931     -0.233233
O     11.90042     19.56718     11.90042        -0.242451      0.290792     -0.336043
O      9.45224      1.03696      9.45224        -0.020459      0.086494     -0.072707
O      1.03696      9.45224      9.45224         0.090904     -0.091322     -0.138707
O      1.03696      1.03696      1.03696         0.088980      0.190180      0.047554
O      9.45224      9.45224      1.03696        -0.111579     -0.100469      0.031166
Zr     10.48920      2.52580     10.48920        -0.131703     -0.291156     -0.035886
Zr     10.48920     18.45260     10.48920        -0.073072      0.214431      0.093943
Zr     10.48920     10.48920      2.52580         0.060247     -0.410154     -0.250728
Zr     10.48920     10.48920     18.45260        -0.271057     -0.090203      0.324328
Zr      2.52580     10.48920     10.48920        -0.376043      0.239184      0.302674
Zr     18.45260     10.48920     10.48920         0.240498     -0.000553     -0.222939
Pd     13.60521      8.99070      9.20001        -0.005345     -0.001732     -0.005652
Pd      5.62871      9.86628     10.12792         0.002541      0.001328     -0.006953
Pd      6.77104     11.84746     11.70901        -0.000403     -0.001766     -0.000447
Pd     12.05950     12.99521      7.35911        -0.005209     -0.002253      0.001205
Pd     11.87468      7.73864      7.45357         0.000121     -0.004741     -0.003444
Pd      8.31626      6.82964      6.52935         0.001702     -0.010806     -0.007942
Pd     10.56884     11.16817      5.65497        -0.017872     -0.000260     -0.000569
Pd     14.39893      8.54733      6.72832        -0.002974     -0.000317     -0.002253
Pd      9.66464     11.72986      8.14842         0.000080     -0.002941      0.007799
Pd      6.72785      6.78783     12.34023        -0.002206     -0.002111      0.002030
Pd      6.61546      8.26513      7.88825         0.014745      0.020605     -0.024848
Pd      6.52403      8.49092     14.38954         0.000080     -0.001039      0.002540
Pd     11.48321      6.51052      9.94966        -0.002164     -0.004107      0.000347
Pd      9.46080      9.19884      7.17071        -0.004461     -0.004215      0.000943
Pd      8.97868     13.99166      9.36371        -0.000329     -0.001935      0.006907
Pd      9.43407      7.36680     11.69858        -0.005046      0.000466     -0.003858
Pd     10.63117      8.95941      9.67393         0.005083     -0.003398     -0.005930
Pd      9.34073     11.56931     10.73647        -0.002161      0.003891      0.004067
Pd      8.86271      7.07075      9.10948        -0.004686     -0.000838     -0.006097
Pd      8.55420      6.58007     14.23363         0.000213     -0.000401     -0.000978
Pd      7.61784      9.31997     12.03255        -0.004885     -0.001426      0.004784
Pd     11.94081     10.37476      7.70952        -0.000480     -0.006116     -0.009950
Pd      7.12864     12.01514      9.06706         0.001707     -0.003936      0.000001
Pd      8.14940      9.62444      9.47268         0.003646      0.001178      0.013506
Pd     14.01043      6.50110      8.52473        -0.002239     -0.001275     -0.000199
Pd     12.62865      8.40772     11.56570        -0.003173     -0.000871     -0.002626
Pd      8.76025     11.57125     13.41311        -0.002627     -0.001509      0.005199
Pd     13.86991     11.91104      8.96890        -0.004776     -0.003928     -0.002202
Pd     12.93340     10.70160     13.07554        -0.002677     -0.004515     -0.000638
Pd     14.76316     10.42969     11.12014        -0.004607     -0.005232     -0.001521
Pd     12.05016     10.89713     10.53848        -0.006279     -0.001315     -0.003859
Pd     11.44751     13.34959      9.92693         0.001502      0.002052      0.002539
Pd     13.59716     12.91286     11.62673         0.001476     -0.005286     -0.000626
Pd     11.11373     12.62806     12.54451        -0.000454      0.000075      0.001770
Pd     10.94294     11.06656     14.81776         0.001639      0.000116      0.001231
Pd     10.49868      9.72117     12.37837        -0.005242     -0.001356     -0.001503
Pd      9.08398      9.14163     14.43515         0.001234     -0.000622      0.003351
Pd      8.79814     13.86446     12.06535        -0.003616      0.000677      0.009476
