152
# total energy = -1004.61930588 eVH     10.35389      5.87395      7.64558        -0.077099      0.083959      0.686330
H     10.62451     15.10445      7.64558        -0.079830     -0.185722      0.534932
H     10.62451      5.87395     13.33282         0.403584      0.020660     -0.861681
H     10.35389     15.10445     13.33282         0.045246     -0.165738     -0.490394
H      7.64558     10.35389      5.87395         0.359232      0.037275      0.156825
H      7.64558     10.62451     15.10445         0.957907      0.617155      0.021474
H     13.33282     10.62451      5.87395        -0.515328      0.222467      0.087191
H     13.33282     10.35389     15.10445        -0.856372     -0.248969      0.052957
H      5.87395      7.64558     10.35389         0.259114      1.686315      0.212877
H     15.10445      7.64558     10.62451        -0.096853      0.526444      0.250795
H      5.87395     13.33282     10.62451         0.194388     -0.577520     -0.016617
H     15.10445     13.33282     10.35389         0.088524     -1.192831     -0.400180
H      5.87395     10.35389      7.64558         0.156402      0.039050      0.482945
H     15.10445     10.62451      7.64558        -0.183868      0.737354      1.147967
H      5.87395     10.62451     13.33282        -0.001053      0.528786     -1.191342
H     15.10445     10.35389     13.33282         0.035319     -0.192845     -0.790153
H     10.35389      7.64558      5.87395         0.145708      1.386334      0.080441
H     10.62451      7.64558     15.10445         0.522962      0.749392     -0.113416
H     10.62451     13.33282      5.87395        -0.358039     -0.669129      0.316303
H     10.35389     13.33282     15.10445        -0.248136     -0.482706     -0.331039
H      7.64558      5.87395     10.35389         1.118668     -0.156326     -0.125126
H      7.64558     15.10445     10.62451         0.821728     -0.191866     -0.042116
H     13.33282      5.87395     10.62451        -0.578442      0.136199      0.603250
H     13.33282     15.10445     10.35389        -0.565081     -0.041594     -0.248695
H     12.45634     12.45634     19.01126         0.265129      0.261437     -0.228849
H     19.01126     19.01126     19.01126        -0.272988     -0.258736     -0.223501
H     19.01126     12.45634     12.45634        -0.278109      0.258142      0.223377
H     12.45634     19.01126     12.45634         0.239908     -0.276138      0.250624
C     10.35284      5.61067      6.59456        -0.186757     -0.820720     -0.263656
C     10.62556     15.36773      6.59456         0.031167      0.217531     -0.385422
C     10.62556      5.61067     14.38384        -0.039343     -0.387945      0.589789
C     10.35284     15.36773     14.38384         0.002654      0.279992      0.492769
C      6.59456     10.35284      5.61067        -0.446789      0.037299     -0.273571
C      6.59456     10.62556     15.36773        -0.888446      0.152750      0.691954
C     14.38384     10.62556      5.61067         0.515562     -0.099370     -0.866490
C     14.38384     10.35284     15.36773         0.967958     -0.109319      0.318862
C      5.61067      6.59456     10.35284        -0.872100     -0.751898     -0.382383
C     15.36773      6.59456     10.62556         0.676917     -0.053774     -0.273950
C      5.61067     14.38384     10.62556        -0.232170      0.646008      0.006677
C     15.36773     14.38384     10.35284         0.328932      1.144416      0.080806
C      5.61067     10.35284      6.59456        -0.268968      0.016730     -0.723234
C     15.36773     10.62556      6.59456         0.593144     -0.173228     -0.528631
C      5.61067     10.62556     14.38384        -0.564085     -0.009932      0.759088
C     15.36773     10.35284     14.38384         0.507987     -0.084997      1.069052
C     10.35284      6.59456      5.61067        -0.041554     -0.901155     -0.414143
C     10.62556      6.59456     15.36773         0.138486     -0.800360      0.501304
C     10.62556     14.38384      5.61067         0.081480      1.165300     -0.307446
C     10.35284     14.38384     15.36773        -0.028454      1.085286      0.526134
C      6.59456      5.61067     10.35284        -0.363402     -1.247334      0.128632
C      6.59456     15.36773     10.62556        -0.974889      0.176917      0.116289
C     14.38384      5.61067     10.62556        -0.125447     -0.462088     -0.338254
C     14.38384     15.36773     10.35284         0.276555      0.537317     -0.047566
C     10.40319      3.19606      7.29314         0.014981      0.949243     -0.495748
C     10.35913      4.25547      6.23373         0.059429     -0.586869      0.124970
C      0.08601      7.29314      7.29314        -0.029156     -0.959276     -0.195325
C      0.13007      6.23373      6.23373        -0.095164      0.274508      0.315899
C      0.08601      3.19606      3.19606         0.047700      1.350991      0.150853
C      0.13007      4.25547      4.25547        -0.038190     -0.372891     -0.326859
C     10.40319      7.29314      3.19606        -0.000838     -0.473230      0.281865
C     10.35913      6.23373      4.25547        -0.007019      0.105184     -0.790186
C      7.29314     10.40319      3.19606        -0.279435      0.018484      0.551225
C      6.23373     10.35913      4.25547         0.201497      0.086831     -0.111981
C      7.29314      0.08601      7.29314        -1.021872     -0.102281     -0.357356
C      6.23373      0.13007      6.23373         0.729406     -0.214458      0.434278
C      3.19606      0.08601      3.19606         1.187099     -0.024593      0.487910
C      4.25547      0.13007      4.25547        -0.678090     -0.192817     -0.382223
C      3.19606     10.40319      7.29314         0.580430      0.018076     -0.419452
C      4.25547     10.35913      6.23373        -0.238539      0.108325      0.227593
C      3.19606      7.29314     10.40319         0.353631     -0.970815      0.034040
C      4.25547      6.23373     10.35913        -1.125750      0.137526      0.174895
C      7.29314      7.29314      0.08601        -0.471376     -0.502875     -0.014293
C      6.23373      6.23373      0.13007         0.485110      0.322017      0.019158
C      3.19606      3.19606      0.08601         0.510715      0.407489     -0.027398
C      4.25547      4.25547      0.13007        -0.051058     -0.702907     -0.091187
C      7.29314      3.19606     10.40319        -0.401382      0.509972      0.057382
C      6.23373      4.25547     10.35913         0.508800     -0.731777      0.215496
O     10.43466      3.58206      8.50569        -0.014413      0.052490      0.461903
O     10.54374     17.39634      8.50569         0.058362     -0.026838      0.252152
O     10.54374      3.58206     12.47271         0.001538     -0.098933     -0.103010
O     10.43466     17.39634     12.47271        -0.037320     -0.140042     -0.502225
O      8.50569     10.43466      3.58206         0.339104     -0.022601      0.034290
O      8.50569     10.54374     17.39634         0.855853     -0.055836     -0.163440
O     12.47271     10.54374      3.58206        -0.878389      0.102368      0.061426
O     12.47271     10.43466     17.39634        -0.581646      0.024358     -0.135769
O      3.58206      8.50569     10.43466         0.190128      0.947668     -0.017180
O     17.39634      8.50569     10.54374        -0.150717      0.671749      0.047361
O      3.58206     12.47271     10.54374         0.104212     -0.538855      0.049529
O     17.39634     12.47271     10.43466        -0.165406     -0.608424     -0.031350
O      3.58206     10.43466      8.50569         0.072948     -0.066101      0.479380
O     17.39634     10.54374      8.50569         0.016981      0.098540      0.406520
O      3.58206     10.54374     12.47271        -0.016039      0.030370     -0.398393
O     17.39634     10.43466     12.47271        -0.218009     -0.033192     -0.679213
O     10.43466      8.50569      3.58206        -0.038311      0.562316      0.158046
O     10.54374      8.50569     17.39634        -0.082944      0.775096     -0.222726
O     10.54374     12.47271      3.58206         0.075992     -0.952722      0.133273
O     10.43466     12.47271     17.39634         0.080004     -0.795740     -0.209364
O      8.50569      3.58206     10.43466         0.572539      0.141976     -0.049763
O      8.50569     17.39634     10.54374         0.550056     -0.151357     -0.000791
O     12.47271      3.58206     10.54374        -0.678295      0.153880      0.023107
O     12.47271     17.39634     10.43466        -0.397861     -0.027321     -0.038699
O     11.90042     11.90042     19.56718        -0.311382     -0.298138      0.233856
O     19.56718     19.56718     19.56718         0.313016      0.303201      0.217910
O     19.56718     11.90042     11.90042         0.327689     -0.268711     -0.230901
O     11.90042     19.56718     11.90042        -0.258688      0.337209     -0.280957
O      9.45224      1.03696      9.45224        -0.015220      0.076447     -0.136220
O      1.03696      9.45224      9.45224         0.066153     -0.045965     -0.148364
O      1.03696      1.03696      1.03696         0.084409      0.122783      0.068861
O      9.45224      9.45224      1.03696        -0.072497     -0.064457      0.050335
Zr     10.48920      2.52580     10.48920        -0.047872     -0.202747      0.011539
Zr     10.48920     18.45260     10.48920        -0.023728      0.096355      0.195886
Zr     10.48920     10.48920      2.52580        -0.233324     -0.441459     -0.301265
Zr     10.48920     10.48920     18.45260         0.039393      0.030296      0.450675
Zr      2.52580     10.48920     10.48920        -0.232188      0.142789      0.067042
Zr     18.45260     10.48920     10.48920         0.179232     -0.010392     -0.035579
Pd     13.13688      8.56967      9.70491        -0.002526      0.063684     -0.031809
Pd      6.06653      9.68966     10.16634        -0.000430     -0.005065      0.016454
Pd      6.94481     11.60406     11.75467        -0.007173     -0.049441      0.018104
Pd     12.29221     13.11639      7.40694        -0.004681      0.072518     -0.048269
Pd     12.11865      7.74307      7.01963         0.026021      0.017960     -0.002065
Pd      8.46993      7.23415      6.89723        -0.046339     -0.009368     -0.030208
Pd     11.24552     11.39937      5.57793         0.005123     -0.007934      0.009731
Pd     14.53945      8.72565      7.38002         0.006471     -0.073363     -0.050911
Pd      9.91827     11.78486      8.02059         0.035952     -0.055537      0.002924
Pd      6.98580      7.04515     12.08651         0.034883      0.054036      0.062748
Pd      6.35467      7.48450      8.41751        -0.002452      0.026541     -0.025552
Pd      7.19845      9.09776     13.69620        -0.016607     -0.053856     -0.054762
Pd     11.47581      6.42231      9.22995         0.032652     -0.005910     -0.046570
Pd      9.94915      9.46239      6.68307         0.050925     -0.029493      0.014565
Pd      9.07939     13.99416      9.34332        -0.033460     -0.002001      0.053709
Pd     10.81925      7.46745     11.45684        -0.059333      0.008997      0.049579
Pd     10.50296      9.14306      9.34294         0.069951     -0.000512     -0.001761
Pd      9.48828     11.51473     10.62541        -0.005655     -0.047320      0.035749
Pd      8.89321      7.11248      9.56065        -0.019045     -0.050724     -0.019690
Pd      9.17718      7.41748     13.46599        -0.043026     -0.046983      0.022174
Pd      8.49727      9.18020     11.32233        -0.051579     -0.086178     -0.063320
Pd     12.30209     10.36774      7.80722        -0.065245      0.032236      0.071944
Pd      7.30782     11.98590      9.15032        -0.024938      0.013528     -0.016054
Pd      8.07030      9.57539      8.47815        -0.021295     -0.026435      0.018832
Pd     14.05426      6.36289      8.48151        -0.010468     -0.024328      0.010517
Pd     13.09259      8.52241     12.34265        -0.056572     -0.034161     -0.027421
Pd      8.94418     11.45255     13.40431        -0.091254      0.019442      0.004261
Pd     13.87769     11.98948      9.15049        -0.040562     -0.049025     -0.037497
Pd     13.13632     11.14682     13.20614        -0.031073      0.003069     -0.002854
Pd     14.71521     10.35353     11.07616         0.020271      0.036313     -0.026479
Pd     12.05855     10.78346     10.73653         0.039672     -0.002628     -0.030770
Pd     11.52024     13.30857      9.89662        -0.026041     -0.045710      0.024461
Pd     13.61241     13.17638     11.63922         0.031151     -0.072101     -0.008164
Pd     11.12142     12.77505     12.47138        -0.021037      0.004809     -0.040344
Pd     11.16563     11.56831     14.91852         0.027048     -0.029503      0.019113
Pd     10.81393      9.74668     12.82780         0.060406     -0.038793     -0.053806
Pd      9.53797      9.48919     15.18676        -0.086118      0.009096      0.061684
Pd      8.68768     13.72816     12.00023         0.021036      0.001942      0.018525
