152
# total energy = -1023.71554364 eVH     10.35389      5.87395      7.64558         0.494872      0.078775      0.768975
H     10.62451     15.10445      7.64558        -0.019339     -0.147525      0.611401
H     10.62451      5.87395     13.33282         0.137430      0.164082     -0.644372
H     10.35389     15.10445     13.33282        -0.332047     -0.058465     -0.763398
H      7.64558     10.35389      5.87395         0.313206     -0.014667      0.186558
H      7.64558     10.62451     15.10445         1.039449     -0.406218      0.005266
H     13.33282     10.62451      5.87395        -0.751786      0.009671      0.178002
H     13.33282     10.35389     15.10445        -0.704036     -0.246649      0.047475
H      5.87395      7.64558     10.35389         0.203439      0.794085     -0.094448
H     15.10445      7.64558     10.62451        -0.147946      0.398625     -0.049530
H      5.87395     13.33282     10.62451         0.179623     -0.481864     -0.073876
H     15.10445     13.33282     10.35389        -0.120571     -0.952392      0.098093
H      5.87395     10.35389      7.64558         0.145910      0.103478      0.435895
H     15.10445     10.62451      7.64558         0.091796      0.096324      1.149845
H      5.87395     10.62451     13.33282         0.108785     -0.038502     -0.371985
H     15.10445     10.35389     13.33282        -0.107486     -0.087327     -0.596689
H     10.35389      7.64558      5.87395        -0.045500      0.856178      0.227478
H     10.62451      7.64558     15.10445         0.015095      0.301251     -0.176357
H     10.62451     13.33282      5.87395        -0.053353     -0.565084      0.235933
H     10.35389     13.33282     15.10445        -0.637198     -0.836324     -0.040102
H      7.64558      5.87395     10.35389         0.470514      0.115026      0.046078
H      7.64558     15.10445     10.62451         0.772566     -0.284359      0.061407
H     13.33282      5.87395     10.62451        -0.473062      0.172669     -0.061154
H     13.33282     15.10445     10.35389        -0.626577     -0.075499      0.197368
H     12.45634     12.45634     19.01126         0.243172      0.280785     -0.227320
H     19.01126     19.01126     19.01126        -0.253744     -0.238168     -0.253042
H     19.01126     12.45634     12.45634        -0.247681      0.273330      0.227233
H     12.45634     19.01126     12.45634         0.229052     -0.262241      0.243777
C     10.35284      5.61067      6.59456        -0.212541     -0.533102      0.023789
C     10.62556     15.36773      6.59456         0.034442      0.416104     -0.838240
C     10.62556      5.61067     14.38384        -0.059759     -0.119412      0.756159
C     10.35284     15.36773     14.38384         0.053816      0.770033      0.320200
C      6.59456     10.35284      5.61067        -0.382132     -0.029446     -0.233953
C      6.59456     10.62556     15.36773        -1.107835      0.448749      0.419439
C     14.38384     10.62556      5.61067         0.370792      0.273642     -0.591836
C     14.38384     10.35284     15.36773         0.885609     -0.074508      0.389961
C      5.61067      6.59456     10.35284        -0.359951     -0.527836      0.344544
C     15.36773      6.59456     10.62556         0.170666     -0.508335      0.033043
C      5.61067     14.38384     10.62556        -0.109505      0.474129     -0.000531
C     15.36773     14.38384     10.35284         0.289176     -0.152444     -0.189367
C      5.61067     10.35284      6.59456        -0.271592     -0.030556     -0.793890
C     15.36773     10.62556      6.59456         0.687054     -0.327670     -1.279598
C      5.61067     10.62556     14.38384        -0.563477     -0.024578      0.158666
C     15.36773     10.35284     14.38384         0.648588     -0.114788      1.295193
C     10.35284      6.59456      5.61067        -0.266955     -0.542310     -0.737243
C     10.62556      6.59456     15.36773         0.041119     -0.294464      0.144519
C     10.62556     14.38384      5.61067         0.147920      1.070392     -0.419061
C     10.35284     14.38384     15.36773         0.086251      0.316706      0.764354
C      6.59456      5.61067     10.35284        -0.308998     -0.807261      0.061249
C      6.59456     15.36773     10.62556        -1.288603      0.340949      0.052788
C     14.38384      5.61067     10.62556         0.679328     -0.236745      0.017880
C     14.38384     15.36773     10.35284        -0.481296      0.647573     -0.354966
C     10.40319      3.19606      7.29314         0.015717      0.900058     -0.382298
C     10.35913      4.25547      6.23373         0.037297     -0.473216      0.603739
C      0.08601      7.29314      7.29314        -0.003621     -0.439035     -0.409364
C      0.13007      6.23373      6.23373        -0.005632      0.043812      0.111822
C      0.08601      3.19606      3.19606        -0.016584      0.838864      0.183093
C      0.13007      4.25547      4.25547        -0.070876     -0.182666     -0.246979
C     10.40319      7.29314      3.19606         0.005171     -0.908106      0.493706
C     10.35913      6.23373      4.25547         0.036210      0.469314     -0.629064
C      7.29314     10.40319      3.19606        -0.397814      0.037850      0.864954
C      6.23373     10.35913      4.25547         0.232569      0.069529     -0.108217
C      7.29314      0.08601      7.29314        -0.426888     -0.026456     -0.287236
C      6.23373      0.13007      6.23373         0.463639     -0.061326      0.492021
C      3.19606      0.08601      3.19606         0.713032     -0.018720      0.419858
C      4.25547      0.13007      4.25547        -0.099746     -0.054448     -0.436829
C      3.19606     10.40319      7.29314         0.744356     -0.006883     -0.663709
C      4.25547     10.35913      6.23373        -0.217206      0.083268      0.189048
C      3.19606      7.29314     10.40319         0.507082     -1.274526     -0.033168
C      4.25547      6.23373     10.35913        -0.473598      0.824714      0.048480
C      7.29314      7.29314      0.08601        -0.558101     -0.240473     -0.015421
C      6.23373      6.23373      0.13007         0.172432      0.140026     -0.014203
C      3.19606      3.19606      0.08601         0.239355      0.316100     -0.024468
C      4.25547      4.25547      0.13007        -0.066485     -0.045399      0.013870
C      7.29314      3.19606     10.40319        -0.350270      0.693667      0.010478
C      6.23373      4.25547     10.35913         1.069637      0.062635      0.005478
O     10.43466      3.58206      8.50569        -0.039978      0.032798      0.416497
O     10.54374     17.39634      8.50569        -0.021373     -0.110458      0.488253
O     10.54374      3.58206     12.47271         0.049641      0.006152     -0.238005
O     10.43466     17.39634     12.47271        -0.045272     -0.081624     -0.551798
O      8.50569     10.43466      3.58206         0.370065     -0.019856     -0.021593
O      8.50569     10.54374     17.39634         0.530513      0.029996     -0.150138
O     12.47271     10.54374      3.58206        -0.639399     -0.024285      0.159601
O     12.47271     10.43466     17.39634        -0.684052     -0.023608     -0.093751
O      3.58206      8.50569     10.43466         0.173127      1.104462      0.000782
O     17.39634      8.50569     10.54374        -0.039138      0.368823      0.071823
O      3.58206     12.47271     10.54374         0.083216     -0.500357      0.030831
O     17.39634     12.47271     10.43466        -0.169076     -0.701271      0.010808
O      3.58206     10.43466      8.50569        -0.017225     -0.066602      0.529526
O     17.39634     10.54374      8.50569        -0.118412      0.043393      0.416675
O      3.58206     10.54374     12.47271         0.047169      0.008223     -0.435213
O     17.39634     10.43466     12.47271        -0.231689      0.033528     -0.740993
O     10.43466      8.50569      3.58206         0.079255      0.804320      0.193514
O     10.54374      8.50569     17.39634         0.073148      0.595119     -0.119068
O     10.54374     12.47271      3.58206        -0.031111     -0.847811      0.236022
O     10.43466     12.47271     17.39634         0.014603     -0.960160     -0.220389
O      8.50569      3.58206     10.43466         0.515159      0.095856     -0.021421
O      8.50569     17.39634     10.54374         0.635279     -0.241146     -0.030873
O     12.47271      3.58206     10.54374        -0.445935      0.132567      0.050673
O     12.47271     17.39634     10.43466        -0.424582      0.024328     -0.016360
O     11.90042     11.90042     19.56718        -0.264618     -0.333077      0.248229
O     19.56718     19.56718     19.56718         0.287799      0.271459      0.302258
O     19.56718     11.90042     11.90042         0.274911     -0.324274     -0.215956
O     11.90042     19.56718     11.90042        -0.272442      0.286585     -0.264217
O      9.45224      1.03696      9.45224        -0.084768      0.049819     -0.054507
O      1.03696      9.45224      9.45224         0.066973     -0.158924     -0.087609
O      1.03696      1.03696      1.03696         0.023743      0.060611      0.180586
O      9.45224      9.45224      1.03696        -0.056244     -0.086024      0.130569
Zr     10.48920      2.52580     10.48920        -0.029582     -0.074207     -0.111430
Zr     10.48920     18.45260     10.48920         0.087203      0.272662      0.002857
Zr     10.48920     10.48920      2.52580         0.005280     -0.077776     -0.476662
Zr     10.48920     10.48920     18.45260        -0.230495      0.009110      0.445070
Zr      2.52580     10.48920     10.48920        -0.413127      0.272401      0.109085
Zr     18.45260     10.48920     10.48920         0.212006      0.068420     -0.298822
Pd      8.67426      9.91604     13.39930        -0.189491     -0.113486     -0.110228
Pd     10.52750      9.54935     10.35047         0.028598     -0.070543      0.158302
Pd     13.55894      8.74386     12.55195        -0.405636     -0.195378     -0.017507
Pd     10.82003     10.68743     15.16083        -0.079894      0.002548     -0.141308
Pd     12.96146     11.30993     13.31195         0.182149     -0.151636      0.209991
Pd     14.96881     10.69723     11.33676         0.169513      0.410502     -0.279233
Pd      6.60132      7.89216     12.46683         0.223241      0.046720      0.094918
Pd      9.28295      7.19908      9.67895         0.088322      0.143593      0.107465
Pd      9.31139      7.46237     12.43269         0.149113      0.097791     -0.029000
Pd     11.71035      7.34039     11.20791        -0.047351     -0.203637      0.002497
Pd     11.73234      7.78817      8.51427        -0.102915      0.096325      0.168948
Pd      7.31968     11.73431     11.65841        -0.081075      0.090157      0.021737
Pd      9.29317     14.55632      9.55522        -0.126113      0.224998      0.024900
Pd      8.04719     12.40905     14.27306         0.184208      0.026624     -0.146476
Pd     14.16686     14.21885      8.31056        -0.051544     -0.100795      0.085716
Pd     11.62896     13.51288      8.85407         0.056002     -0.140129      0.092210
Pd     14.14606     11.62537      8.92438        -0.166932      0.090480      0.020403
Pd      8.76782     13.93901     12.25251        -0.015848     -0.215064     -0.133628
Pd     12.13896     13.73603     14.14383         0.225432     -0.085868     -0.275940
Pd     11.38265     14.15508     11.51058        -0.035230     -0.256624     -0.149426
Pd     13.95705     13.49040     12.19932         0.327818      0.202377     -0.100102
Pd     12.35512     11.76169     10.80928         0.085342     -0.130554      0.299498
Pd     12.74881     12.58921      6.67706         0.135516      0.045631     -0.100333
Pd     13.99434      8.91789      7.68351        -0.157866     -0.032085      0.112374
Pd      7.00096      8.43664      8.65068        -0.002610     -0.097748     -0.194525
Pd      5.66128     10.07903     10.30998        -0.212363      0.040977      0.053860
Pd      9.40953      9.30997      7.71834         0.101887      0.195633      0.064390
Pd      8.46425      6.89396      7.10664         0.066450     -0.151596     -0.157333
Pd      9.74043     12.00778     10.49879         0.035204      0.134524      0.343474
Pd     11.67931     10.68115      8.22600        -0.075836      0.170729     -0.070060
Pd     11.71291      8.97914      6.10157         0.000457      0.163995      0.074060
Pd     10.24800     11.26977      6.05097        -0.163016      0.169478      0.053902
Ir     11.10125      9.49252     12.84037        -0.009274     -0.093641     -0.264230
Ir     13.16398      9.38932     10.06312        -0.024171     -0.156230      0.009561
Ir     10.43517     11.97221     12.93312         0.017963      0.305809     -0.197651
Ir      7.80634     10.92145      9.10533        -0.075556      0.043786     -0.074626
Ir      9.23154     12.46963      8.06132         0.335421     -0.323336     -0.270936
Ir      8.10204      9.27576     10.95696         0.183137     -0.255901     -0.057717
