152
# total energy = -1060.14880748 eVH     10.35389      5.87395      7.64558        -0.320657      0.100772      1.090490
H     10.62451     15.10445      7.64558         0.072476     -0.068873      0.899746
H     10.62451      5.87395     13.33282        -0.267400      0.072488     -0.781356
H     10.35389     15.10445     13.33282         0.091913     -0.303689     -0.821509
H      7.64558     10.35389      5.87395         0.892540     -0.197644      0.207703
H      7.64558     10.62451     15.10445         0.317444     -0.029915     -0.060586
H     13.33282     10.62451      5.87395        -0.885453      0.219186      0.220924
H     13.33282     10.35389     15.10445        -0.282012     -0.028245     -0.061789
H      5.87395      7.64558     10.35389         0.093997      0.419782     -0.014511
H     15.10445      7.64558     10.62451        -0.040640      0.439224     -0.030097
H      5.87395     13.33282     10.62451        -0.020185     -0.968247      0.077092
H     15.10445     13.33282     10.35389        -0.079273     -0.324438      0.002002
H      5.87395     10.35389      7.64558         0.319293      0.061913      0.370251
H     15.10445     10.62451      7.64558        -0.120919     -0.160435      0.665546
H      5.87395     10.62451     13.33282        -0.060977      0.451634     -0.595734
H     15.10445     10.35389     13.33282         0.225781     -0.640041     -0.866901
H     10.35389      7.64558      5.87395        -0.021695      0.501295      0.345916
H     10.62451      7.64558     15.10445         0.340412      0.793876     -0.001105
H     10.62451     13.33282      5.87395         0.153118     -0.567970      0.201211
H     10.35389     13.33282     15.10445         0.034884     -0.289482     -0.167841
H      7.64558      5.87395     10.35389         0.371176      0.114431      0.063693
H      7.64558     15.10445     10.62451         0.386005     -0.126958      0.179695
H     13.33282      5.87395     10.62451        -0.306500      0.137157     -0.013458
H     13.33282     15.10445     10.35389        -0.658409     -0.103728      0.135873
H     12.45634     12.45634     19.01126         0.258900      0.272307     -0.226348
H     19.01126     19.01126     19.01126        -0.247774     -0.267496     -0.244307
H     19.01126     12.45634     12.45634        -0.249360      0.271640      0.237254
H     12.45634     19.01126     12.45634         0.289636     -0.235005      0.235570
C     10.35284      5.61067      6.59456         0.404982     -0.423642     -1.362128
C     10.62556     15.36773      6.59456        -0.168494      0.609628     -0.661358
C     10.62556      5.61067     14.38384         0.365275     -0.277849      0.772712
C     10.35284     15.36773     14.38384        -0.204941      0.211395      1.020699
C      6.59456     10.35284      5.61067        -1.391948      0.030924     -0.227933
C      6.59456     10.62556     15.36773        -0.671166      0.064595      0.357105
C     14.38384     10.62556      5.61067         1.305434     -0.185535     -0.628181
C     14.38384     10.35284     15.36773         0.316684     -0.129987      0.348126
C      5.61067      6.59456     10.35284        -0.275247     -0.673025     -0.029282
C     15.36773      6.59456     10.62556         0.408550     -0.861410      0.028940
C      5.61067     14.38384     10.62556        -0.146701      1.197142     -0.218691
C     15.36773     14.38384     10.35284         0.507170      0.703087     -0.036537
C      5.61067     10.35284      6.59456        -0.375436     -0.102423     -0.787416
C     15.36773     10.62556      6.59456         0.403384      0.107937     -0.683980
C      5.61067     10.62556     14.38384        -0.415851     -0.162687      1.218157
C     15.36773     10.35284     14.38384         0.238187      0.224192      1.418363
C     10.35284      6.59456      5.61067        -0.070066     -0.746998     -0.549725
C     10.62556      6.59456     15.36773        -0.145204     -0.986228      0.376597
C     10.62556     14.38384      5.61067        -0.493595      0.378078     -0.739442
C     10.35284     14.38384     15.36773        -0.175840      0.756869      0.500540
C      6.59456      5.61067     10.35284        -0.563544     -0.335543      0.004034
C      6.59456     15.36773     10.62556        -0.365850      0.448369      0.064230
C     14.38384      5.61067     10.62556         0.432039     -0.310867      0.008580
C     14.38384     15.36773     10.35284         1.132326      0.492561     -0.076875
C     10.40319      3.19606      7.29314        -0.006877      0.771635     -0.333926
C     10.35913      4.25547      6.23373         0.021578     -0.381813      0.291050
C      0.08601      7.29314      7.29314        -0.018748     -0.376843     -0.506427
C      0.13007      6.23373      6.23373        -0.046806      0.885500      0.094665
C      0.08601      3.19606      3.19606        -0.007547      0.693537      0.260723
C      0.13007      4.25547      4.25547         0.044575     -0.264774     -0.546256
C     10.40319      7.29314      3.19606        -0.064254     -1.114276      0.618162
C     10.35913      6.23373      4.25547        -0.046803      0.346941     -0.200890
C      7.29314     10.40319      3.19606        -1.092118     -0.054686      0.200678
C      6.23373     10.35913      4.25547         0.377901      0.101192     -0.517380
C      7.29314      0.08601      7.29314        -0.472515      0.029689     -0.449596
C      6.23373      0.13007      6.23373         0.180845      0.123488      0.122338
C      3.19606      0.08601      3.19606         0.697846      0.023682      0.174319
C      4.25547      0.13007      4.25547        -0.172184     -0.049594     -0.364435
C      3.19606     10.40319      7.29314         0.361734     -0.025797     -0.950571
C      4.25547     10.35913      6.23373        -0.128313     -0.055369      0.113595
C      3.19606      7.29314     10.40319         0.615380     -0.400035      0.002790
C      4.25547      6.23373     10.35913        -0.116534      0.176925      0.012114
C      7.29314      7.29314      0.08601        -0.428392     -0.296346     -0.015090
C      6.23373      6.23373      0.13007         0.151898      0.154270     -0.062070
C      3.19606      3.19606      0.08601         0.293500      0.492033     -0.024690
C      4.25547      4.25547      0.13007        -0.403473     -0.239601     -0.031046
C      7.29314      3.19606     10.40319        -0.284682      0.594809     -0.009894
C      6.23373      4.25547     10.35913         0.016248     -0.092101      0.014622
O     10.43466      3.58206      8.50569        -0.026655      0.076788      0.306076
O     10.54374     17.39634      8.50569         0.064450     -0.124507      0.595281
O     10.54374      3.58206     12.47271         0.029141      0.102291     -0.398365
O     10.43466     17.39634     12.47271         0.094360     -0.062832     -0.432051
O      8.50569     10.43466      3.58206         0.734854     -0.072041      0.016163
O      8.50569     10.54374     17.39634         0.528512      0.061218     -0.104748
O     12.47271     10.54374      3.58206        -0.653741      0.112804      0.209797
O     12.47271     10.43466     17.39634        -0.278143      0.004852      0.035425
O      3.58206      8.50569     10.43466         0.034041      0.445270     -0.062225
O     17.39634      8.50569     10.54374        -0.053688      0.447298      0.056474
O      3.58206     12.47271     10.54374         0.103780     -0.587554      0.004516
O     17.39634     12.47271     10.43466        -0.180767     -0.741526     -0.050138
O      3.58206     10.43466      8.50569         0.209934     -0.061055      0.809254
O     17.39634     10.54374      8.50569        -0.075411      0.072962      0.498430
O      3.58206     10.54374     12.47271        -0.002461     -0.005651     -0.264153
O     17.39634     10.43466     12.47271         0.035452     -0.009999     -0.232285
O     10.43466      8.50569      3.58206        -0.108328      0.532970     -0.100365
O     10.54374      8.50569     17.39634         0.058091      0.510630     -0.087556
O     10.54374     12.47271      3.58206         0.102872     -0.637067      0.130134
O     10.43466     12.47271     17.39634        -0.066927     -0.685492     -0.272391
O      8.50569      3.58206     10.43466         0.397063      0.022776     -0.045765
O      8.50569     17.39634     10.54374         0.641284     -0.153772      0.046455
O     12.47271      3.58206     10.54374        -0.517659      0.121747      0.028751
O     12.47271     17.39634     10.43466        -0.624832     -0.124557      0.040909
O     11.90042     11.90042     19.56718        -0.279051     -0.304272      0.223257
O     19.56718     19.56718     19.56718         0.309557      0.323130      0.297987
O     19.56718     11.90042     11.90042         0.283881     -0.325197     -0.235823
O     11.90042     19.56718     11.90042        -0.314302      0.229379     -0.201391
O      9.45224      1.03696      9.45224        -0.073341      0.086106     -0.081082
O      1.03696      9.45224      9.45224         0.099839     -0.107054     -0.061957
O      1.03696      1.03696      1.03696         0.079734      0.053741      0.097796
O      9.45224      9.45224      1.03696        -0.058509     -0.125707      0.135995
Zr     10.48920      2.52580     10.48920         0.043762     -0.092703      0.122503
Zr     10.48920     18.45260     10.48920        -0.184333      0.246645     -0.360446
Zr     10.48920     10.48920      2.52580         0.111090      0.359357     -0.344326
Zr     10.48920     10.48920     18.45260        -0.078067     -0.260481      0.233383
Zr      2.52580     10.48920     10.48920        -0.240336      0.133116      0.243568
Zr     18.45260     10.48920     10.48920         0.196785     -0.138148     -0.016291
Pd      9.36062     14.29684      9.31625         0.008646      0.018714     -0.011319
Pd      8.58891     13.63466     13.04946         0.004241     -0.002247      0.015002
Pd     12.02228     14.40712      8.74274         0.003984     -0.000656      0.003313
Pd     12.76179     12.87792     10.67286        -0.032224     -0.002723      0.025318
Pd     12.11971      7.19525     12.67683         0.000203     -0.002292      0.004584
Pd     11.16145     14.90130     11.45417        -0.009914      0.008816     -0.014070
Pd     10.03878     12.55084     11.09343        -0.020060      0.028918     -0.015839
Pd     13.48206     12.15575      7.98163         0.002707      0.002007      0.007632
Pd     11.47929     11.54256      6.11091         0.004915      0.007042      0.000337
Pd      7.94303      8.37981      7.52404         0.001419     -0.015687     -0.002235
Pd      8.72228     11.75734      6.84722        -0.001282     -0.000134     -0.001774
Pd     10.32291      9.45488      8.15032        -0.017163      0.000593      0.017781
Pd      8.49790     14.46405      6.79230        -0.002916      0.002814     -0.007062
Pd     12.39698      9.01779      6.56949        -0.005167      0.012000      0.019445
Pd      9.71846      9.60948      5.57343         0.003700      0.004221      0.001616
Pd      6.80857      9.44901     12.13562         0.006777      0.000906      0.003094
Pd     12.17750      6.74150      7.95234         0.004107      0.006271      0.007572
Pd      5.91612     10.48436      9.68801        -0.004303     -0.001382     -0.001267
Pd      7.55008      7.24041     13.40661        -0.003168     -0.004027     -0.008880
Ir     11.74007      9.78001     13.06589        -0.044225      0.011842      0.020643
Ir     13.55394      9.05617     11.47504        -0.003681     -0.000559      0.014483
Ir      9.42825      8.86123     14.00926        -0.006306      0.016354      0.000351
Ir     10.50230     11.03343     14.87310        -0.004210     -0.042987     -0.002227
Ir      7.26849     12.01609     11.33956        -0.013463      0.010028      0.006256
Ir     14.65554     10.90642     10.14516        -0.000784      0.021430      0.020326
Ir     12.16763     10.56782      9.67675        -0.017370      0.019760     -0.017034
Ir      8.73585     10.99217     12.98822         0.048720      0.002492      0.024700
Ir     10.10832      9.91837     11.17642         0.004674      0.000310     -0.008111
Ir     13.74571     11.41970     12.47947        -0.030070      0.000435      0.033108
Ir     11.60590     12.36276     13.08397        -0.058789     -0.030464      0.026226
Ir      8.50008     11.09916      9.33725         0.007536     -0.004875     -0.004712
Ir     11.59298      8.02881     10.14290        -0.005680     -0.011598     -0.001251
Ir      7.21800     13.03038      8.65574        -0.011639      0.015592      0.000925
Ir      9.54784      6.96120      9.23957         0.009510      0.010168      0.009226
Ir      8.05529      8.76512     10.05847         0.003222     -0.013363     -0.012061
Ir     10.72357     12.12355      8.50632         0.010326     -0.012456      0.008161
Ir      9.51471      7.57262     11.75614         0.002839      0.009505     -0.009527
Ir     13.66851      8.79219      8.84062         0.014228     -0.002816      0.009728
