38
# total energy = -255.12898086 eVH      1.22565      6.94247      7.50000        -0.008333      0.015268      0.000000
H      8.09956      6.77014      7.50000         0.018333      0.000050      0.000000
H      4.45943     13.86356      7.50000         0.000328     -0.008242      0.000000
H     12.67416      2.18065      7.50000         0.008333     -0.015268      0.000000
H      5.80025      2.35298      7.50000        -0.018333     -0.000050      0.000000
H      9.44038     -4.74044      7.50000        -0.000328      0.008242      0.000000
H      5.81330     -2.34569      7.50000        -0.021638      0.006302      0.000000
H      9.44114      4.72598      7.50000         0.010373     -0.008302      0.000000
H     12.66466     -2.17427      7.50000         0.018573      0.018732      0.000000
H      8.08651     11.46881      7.50000         0.021638     -0.006302      0.000000
H      4.45867      4.39714      7.50000        -0.010373      0.008302      0.000000
H      1.23515     11.29740      7.50000        -0.018573     -0.018732      0.000000
C      7.73520     -3.36886      7.50000         0.000798     -0.016553     -0.000000
C     12.48086      0.00319      7.50000         0.000017     -0.003641     -0.000000
C      7.72883      3.36363      7.50000        -0.010838      0.002320      0.000000
C      6.16461     12.49199      7.50000        -0.000798      0.016553     -0.000000
C      1.41895      9.11993      7.50000        -0.000017      0.003641      0.000000
C      6.17098      5.75949      7.50000         0.010838     -0.002320      0.000000
C     13.20770     -1.22627      7.50000        -0.000327     -0.011370      0.000000
C      8.35167      4.64185      7.50000        -0.009866      0.008113      0.000000
C      6.31405     -3.31599      7.50000        -0.003616     -0.014210     -0.000000
C      0.69211     10.34940      7.50000         0.000327      0.011370     -0.000000
C      5.54815      4.48127      7.50000         0.009866     -0.008113      0.000000
C      7.58576     12.43911      7.50000         0.003616      0.014210     -0.000000
C      5.54881     13.77391      7.50000        -0.006301     -0.000874      0.000000
C      7.59253      5.80279      7.50000        -0.000209      0.000893      0.000000
C      0.68817      7.89328      7.50000        -0.014397     -0.000661      0.000000
C      8.35101     -4.65079      7.50000         0.006301      0.000874     -0.000000
C      6.30728      3.32033      7.50000         0.000209     -0.000893      0.000000
C     13.21165      1.22984      7.50000         0.014397      0.000661     -0.000000
N      5.85529      9.13150      7.50000         0.006600     -0.004824     -0.000000
N      8.04452     -0.00838      7.50000        -0.006600      0.004824      0.000000
Ir      8.77006      1.64591      7.50000         0.010071      0.012079     -0.000000
Ir      8.78199     -1.65737      7.50000         0.002848     -0.007322      0.000000
Ir     10.54661      0.00040      7.50000         0.009406      0.007550      0.000000
Ir      5.12976      7.47721      7.50000        -0.010071     -0.012079     -0.000000
Ir      5.11782     10.78049      7.50000        -0.002848      0.007322      0.000000
Ir      3.35320      9.12272      7.50000        -0.009406     -0.007550      0.000000
