152
# total energy = -1022.85980739 eVH     10.35389      5.87395      7.64558         0.480206      0.030682      0.901250
H     10.62451     15.10445      7.64558        -0.048875      0.045029      0.775571
H     10.62451      5.87395     13.33282         0.144694      0.115781     -0.606624
H     10.35389     15.10445     13.33282        -0.259800     -0.079579     -0.562068
H      7.64558     10.35389      5.87395         0.331362     -0.035642      0.190220
H      7.64558     10.62451     15.10445         0.616529     -0.191223     -0.143007
H     13.33282     10.62451      5.87395        -0.852035     -0.315985      0.168878
H     13.33282     10.35389     15.10445        -0.451736     -0.081148     -0.068388
H      5.87395      7.64558     10.35389         0.128844      1.122773     -0.155640
H     15.10445      7.64558     10.62451        -0.170292      0.404299     -0.087282
H      5.87395     13.33282     10.62451         0.142910     -0.406699     -0.071873
H     15.10445     13.33282     10.35389        -0.079175     -0.970374     -0.184753
H      5.87395     10.35389      7.64558         0.127686      0.039670      0.480762
H     15.10445     10.62451      7.64558         0.122066     -0.207517      0.821524
H      5.87395     10.62451     13.33282         0.267963     -0.028017     -0.393837
H     15.10445     10.35389     13.33282        -0.152784      0.015237     -0.614380
H     10.35389      7.64558      5.87395         0.065454      0.852576      0.118493
H     10.62451      7.64558     15.10445         0.023188      0.563568     -0.143348
H     10.62451     13.33282      5.87395         0.060428     -0.601254      0.181553
H     10.35389     13.33282     15.10445        -0.252879     -0.890874     -0.109257
H      7.64558      5.87395     10.35389         0.524215      0.042705     -0.132214
H      7.64558     15.10445     10.62451         0.915869     -0.208148      0.288707
H     13.33282      5.87395     10.62451        -0.437541      0.186860     -0.058874
H     13.33282     15.10445     10.35389        -0.990745     -0.102070      0.259654
H     12.45634     12.45634     19.01126         0.266543      0.257324     -0.224847
H     19.01126     19.01126     19.01126        -0.247650     -0.235090     -0.262172
H     19.01126     12.45634     12.45634        -0.240941      0.270285      0.239286
H     12.45634     19.01126     12.45634         0.211106     -0.282762      0.252713
C     10.35284      5.61067      6.59456        -0.127456     -0.435550     -0.394995
C     10.62556     15.36773      6.59456         0.022248      0.346050     -1.161617
C     10.62556      5.61067     14.38384        -0.029740     -0.221981      0.727390
C     10.35284     15.36773     14.38384         0.177005      0.774342      0.156643
C      6.59456     10.35284      5.61067        -0.412180     -0.040168     -0.180444
C      6.59456     10.62556     15.36773        -0.784917      0.151713      0.349155
C     14.38384     10.62556      5.61067         0.614593      0.286498     -0.370139
C     14.38384     10.35284     15.36773         0.724882     -0.119226      0.423411
C      5.61067      6.59456     10.35284        -0.426682     -0.749869      0.282479
C     15.36773      6.59456     10.62556         0.197217     -0.467506      0.047560
C      5.61067     14.38384     10.62556        -0.254672      0.376433     -0.024345
C     15.36773     14.38384     10.35284         0.397786      0.141286      0.184880
C      5.61067     10.35284      6.59456        -0.309862     -0.014407     -0.889887
C     15.36773     10.62556      6.59456         0.574473     -0.160002     -1.235495
C      5.61067     10.62556     14.38384        -0.457936      0.008024      0.889640
C     15.36773     10.35284     14.38384         0.519724     -0.177446      1.242653
C     10.35284      6.59456      5.61067        -0.039568     -0.907275     -0.668369
C     10.62556      6.59456     15.36773         0.045532     -0.674621      0.296213
C     10.62556     14.38384      5.61067         0.044273      1.242042     -0.689734
C     10.35284     14.38384     15.36773         0.105423      0.603999      0.654088
C      6.59456      5.61067     10.35284        -0.212489     -0.896776      0.130901
C      6.59456     15.36773     10.62556        -1.725222      0.493087      0.046596
C     14.38384      5.61067     10.62556         0.584638     -0.227761     -0.008026
C     14.38384     15.36773     10.35284         0.138677      0.560399     -0.240712
C     10.40319      3.19606      7.29314         0.015066      0.901371     -0.252632
C     10.35913      4.25547      6.23373        -0.051937     -0.372265      0.607128
C      0.08601      7.29314      7.29314        -0.008845     -0.237702     -0.468997
C      0.13007      6.23373      6.23373         0.004165      0.121133      0.211030
C      0.08601      3.19606      3.19606        -0.016612      0.639544      0.181869
C      0.13007      4.25547      4.25547        -0.090980     -0.199315     -0.168326
C     10.40319      7.29314      3.19606        -0.002368     -0.690361      0.530079
C     10.35913      6.23373      4.25547        -0.008799      0.505469     -0.405543
C      7.29314     10.40319      3.19606        -0.339878      0.022952      0.860157
C      6.23373     10.35913      4.25547         0.209028      0.012281     -0.142200
C      7.29314      0.08601      7.29314        -0.308766     -0.046209     -0.272923
C      6.23373      0.13007      6.23373         0.269408     -0.058550      0.295258
C      3.19606      0.08601      3.19606         0.438051     -0.051876      1.293504
C      4.25547      0.13007      4.25547        -0.115693     -0.028699     -0.462083
C      3.19606     10.40319      7.29314         0.702471      0.014610     -0.264632
C      4.25547     10.35913      6.23373        -0.134026      0.030534      0.103274
C      3.19606      7.29314     10.40319         0.608493     -1.270394      0.025042
C      4.25547      6.23373     10.35913        -0.719524      0.840497      0.047414
C      7.29314      7.29314      0.08601        -0.655712     -0.170943     -0.022095
C      6.23373      6.23373      0.13007         0.172060      0.270504     -0.008321
C      3.19606      3.19606      0.08601         0.241611      0.251276     -0.019468
C      4.25547      4.25547      0.13007        -0.054546     -0.036879      0.011835
C      7.29314      3.19606     10.40319        -0.372340      0.798818      0.015216
C      6.23373      4.25547     10.35913         0.883164     -0.157977      0.008368
O     10.43466      3.58206      8.50569        -0.049273      0.034121      0.321800
O     10.54374     17.39634      8.50569        -0.024361     -0.182072      0.601288
O     10.54374      3.58206     12.47271         0.054779      0.063464     -0.324634
O     10.43466     17.39634     12.47271        -0.022857     -0.126017     -0.584247
O      8.50569     10.43466      3.58206         0.380305     -0.025044     -0.014060
O      8.50569     10.54374     17.39634         0.470632      0.053144     -0.143344
O     12.47271     10.54374      3.58206        -0.286043      0.048443     -0.074522
O     12.47271     10.43466     17.39634        -0.852327      0.020176     -0.224773
O      3.58206      8.50569     10.43466         0.042568      0.923609      0.039828
O     17.39634      8.50569     10.54374        -0.039916      0.338685      0.077851
O      3.58206     12.47271     10.54374         0.064416     -0.421656      0.064273
O     17.39634     12.47271     10.43466        -0.170548     -0.780755      0.020155
O      3.58206     10.43466      8.50569        -0.055371     -0.066459      0.227612
O     17.39634     10.54374      8.50569        -0.136704      0.042653      0.459665
O      3.58206     10.54374     12.47271        -0.015366     -0.051692     -0.890216
O     17.39634     10.43466     12.47271        -0.198118      0.043275     -0.767149
O     10.43466      8.50569      3.58206         0.044406      0.679325      0.190036
O     10.54374      8.50569     17.39634         0.053505      0.433829     -0.080423
O     10.54374     12.47271      3.58206        -0.006921     -0.726888      0.226244
O     10.43466     12.47271     17.39634         0.047391     -0.848622     -0.273968
O      8.50569      3.58206     10.43466         0.491092      0.074390     -0.038363
O      8.50569     17.39634     10.54374         0.653700     -0.252040     -0.060745
O     12.47271      3.58206     10.54374        -0.485002      0.163447      0.039686
O     12.47271     17.39634     10.43466        -0.531022     -0.037307     -0.029398
O     11.90042     11.90042     19.56718        -0.304457     -0.312424      0.264552
O     19.56718     19.56718     19.56718         0.286894      0.271719      0.320696
O     19.56718     11.90042     11.90042         0.279312     -0.330670     -0.244928
O     11.90042     19.56718     11.90042        -0.229105      0.290245     -0.240996
O      9.45224      1.03696      9.45224        -0.074761      0.047416     -0.066913
O      1.03696      9.45224      9.45224         0.054544     -0.145244     -0.057650
O      1.03696      1.03696      1.03696         0.043153      0.032899      0.187098
O      9.45224      9.45224      1.03696        -0.040508     -0.092386      0.121852
Zr     10.48920      2.52580     10.48920        -0.007815     -0.073274     -0.023564
Zr     10.48920     18.45260     10.48920         0.058762      0.307332     -0.072307
Zr     10.48920     10.48920      2.52580        -0.101848      0.015490     -0.371253
Zr     10.48920     10.48920     18.45260        -0.133504     -0.152490      0.328148
Zr      2.52580     10.48920     10.48920        -0.351323      0.316586     -0.463540
Zr     18.45260     10.48920     10.48920         0.243756      0.036631     -0.263088
Pd      9.04104     10.25772     13.32956        -0.013714     -0.015600      0.005898
Pd     10.58452      9.72617     10.98135        -0.005340     -0.011725     -0.041068
Pd     13.76442      8.53907     12.68471         0.005446      0.003216     -0.004754
Pd     11.00091     11.07206     15.01666        -0.001761     -0.016904     -0.000590
Pd     12.85175     11.17513     13.01109         0.024206      0.005645      0.012761
Pd     14.98250     10.93846     11.34323         0.012121      0.010391     -0.008394
Pd      6.64905      7.44040     12.34194         0.000264      0.020861      0.001407
Pd      9.22978      7.26430     10.11855         0.006175      0.012057     -0.031328
Pd      9.26498      7.60336     12.79486         0.010852     -0.010500     -0.022060
Pd     11.69716      7.28735     11.46351         0.006396      0.001347     -0.011342
Pd     11.40482      7.99531      8.86159         0.030048     -0.003446     -0.012813
Pd      7.26327     11.83434     11.95346         0.004501     -0.002963     -0.015355
Pd      8.90528     14.67560      9.33484         0.036991      0.007809      0.015349
Pd      8.41708     12.65381     14.32193        -0.009686     -0.009683     -0.000975
Pd     13.54161     14.09729      8.55461         0.081655      0.026478     -0.047852
Pd     10.99444     13.34500      8.52231         0.072273      0.035438      0.039749
Pd     14.09250     11.52636      8.92657         0.001646      0.025305     -0.004750
Pd      8.62040     14.10685     12.10236         0.009438     -0.005452      0.001205
Pd     12.24230     13.72809     14.02514        -0.003816     -0.007329      0.004956
Pd     11.15745     14.43668     11.15673         0.030060     -0.014635      0.044641
Pd     14.05953     13.54989     12.17491        -0.011040      0.012586     -0.004755
Pd     12.31151     12.15574     10.67111        -0.000791     -0.028019      0.012309
Pd     12.67286     12.33588      6.71688         0.012894      0.035363     -0.016751
Pd     13.66609      8.94138      7.92522         0.034128      0.005761      0.003806
Pd      6.86410      8.46329      8.85158         0.011229      0.012501     -0.005307
Pd      5.52868      9.93812     11.25948         0.004524      0.030448     -0.054899
Pd      9.15264      9.73966      8.31021         0.028851     -0.019289     -0.015940
Pd      8.81345      7.23448      7.45878        -0.016166     -0.005657     -0.032010
Pd      9.52970     12.08500     10.42213         0.024453      0.004402      0.003107
Pd     11.53894     10.71232      8.57054         0.019139      0.010287     -0.032465
Pd     11.25076      9.23471      6.44037         0.039225     -0.022509     -0.010163
Pd      9.91195     11.54940      6.38730         0.022415     -0.026646     -0.013077
Ir     11.35141      9.09945     13.36008        -0.001813      0.014334     -0.034473
Ir     13.07612      9.48525     10.39491         0.009454      0.010579     -0.007303
Ir     10.53106     12.35684     12.70951        -0.004731     -0.020873      0.009077
Ir      7.15194     10.98059      9.50179         0.037940     -0.003387     -0.008709
Ir      8.41254     12.46122      8.18404         0.071249      0.030104     -0.022346
Ir      8.06754      9.29759     11.11630        -0.004626      0.008351     -0.006330
