152
# total energy = -1060.07210695 eVH     10.35389      5.87395      7.64558        -0.273342      0.029413      1.131520
H     10.62451     15.10445      7.64558         0.077407     -0.089176      0.922862
H     10.62451      5.87395     13.33282        -0.254251      0.080927     -0.788428
H     10.35389     15.10445     13.33282         0.101716     -0.300466     -0.878734
H      7.64558     10.35389      5.87395         0.931949     -0.133084      0.186711
H      7.64558     10.62451     15.10445         0.328197     -0.036765     -0.074534
H     13.33282     10.62451      5.87395        -0.863527      0.201749      0.204285
H     13.33282     10.35389     15.10445        -0.278404     -0.013291     -0.067756
H      5.87395      7.64558     10.35389         0.087735      0.416867     -0.009114
H     15.10445      7.64558     10.62451        -0.001566      0.497861     -0.029489
H      5.87395     13.33282     10.62451        -0.015856     -0.961585      0.078253
H     15.10445     13.33282     10.35389        -0.086775     -0.321136      0.004399
H      5.87395     10.35389      7.64558         0.280516      0.112928      0.408460
H     15.10445     10.62451      7.64558        -0.123752     -0.171522      0.662050
H      5.87395     10.62451     13.33282        -0.086759      0.462315     -0.621491
H     15.10445     10.35389     13.33282         0.247865     -0.623452     -0.830643
H     10.35389      7.64558      5.87395        -0.040696      0.483991      0.334060
H     10.62451      7.64558     15.10445         0.245339      0.764785     -0.034671
H     10.62451     13.33282      5.87395         0.125037     -0.573073      0.209296
H     10.35389     13.33282     15.10445         0.041208     -0.287067     -0.140670
H      7.64558      5.87395     10.35389         0.344482      0.098472      0.027954
H      7.64558     15.10445     10.62451         0.378712     -0.117707      0.165091
H     13.33282      5.87395     10.62451        -0.316356      0.129893     -0.031872
H     13.33282     15.10445     10.35389        -0.652867     -0.131428      0.148945
H     12.45634     12.45634     19.01126         0.255736      0.271210     -0.228641
H     19.01126     19.01126     19.01126        -0.246573     -0.267938     -0.245438
H     19.01126     12.45634     12.45634        -0.250916      0.269623      0.235341
H     12.45634     19.01126     12.45634         0.290639     -0.235666      0.234621
C     10.35284      5.61067      6.59456         0.398609     -0.417839     -1.436636
C     10.62556     15.36773      6.59456        -0.158810      0.585717     -0.642939
C     10.62556      5.61067     14.38384         0.383673     -0.338435      0.837395
C     10.35284     15.36773     14.38384        -0.227236      0.230316      1.091676
C      6.59456     10.35284      5.61067        -1.375500      0.021595     -0.233083
C      6.59456     10.62556     15.36773        -0.642837      0.062504      0.369472
C     14.38384     10.62556      5.61067         1.311835     -0.170368     -0.630571
C     14.38384     10.35284     15.36773         0.361596     -0.125183      0.360024
C      5.61067      6.59456     10.35284        -0.288257     -0.644569     -0.019687
C     15.36773      6.59456     10.62556         0.421084     -0.967650      0.031928
C      5.61067     14.38384     10.62556        -0.134273      1.165060     -0.179580
C     15.36773     14.38384     10.35284         0.463111      0.652529     -0.026859
C      5.61067     10.35284      6.59456        -0.368214     -0.100082     -0.721372
C     15.36773     10.62556      6.59456         0.407760      0.118551     -0.728483
C      5.61067     10.62556     14.38384        -0.379806     -0.171925      1.231105
C     15.36773     10.35284     14.38384         0.267789      0.191262      1.465733
C     10.35284      6.59456      5.61067        -0.053584     -0.718990     -0.602640
C     10.62556      6.59456     15.36773        -0.102158     -0.871795      0.346242
C     10.62556     14.38384      5.61067        -0.470808      0.411439     -0.707580
C     10.35284     14.38384     15.36773        -0.155948      0.599759      0.420607
C      6.59456      5.61067     10.35284        -0.511063     -0.335401      0.028080
C      6.59456     15.36773     10.62556        -0.378704      0.450831      0.056697
C     14.38384      5.61067     10.62556         0.448743     -0.375391      0.001723
C     14.38384     15.36773     10.35284         1.119013      0.495414     -0.073467
C     10.40319      3.19606      7.29314        -0.000718      0.679089     -0.339600
C     10.35913      4.25547      6.23373         0.009804     -0.429374      0.290149
C      0.08601      7.29314      7.29314        -0.013253     -0.366768     -0.503425
C      0.13007      6.23373      6.23373        -0.070846      0.844703      0.064579
C      0.08601      3.19606      3.19606        -0.002519      0.680596      0.266932
C      0.13007      4.25547      4.25547         0.030729     -0.270967     -0.540116
C     10.40319      7.29314      3.19606        -0.066598     -1.151692      0.578695
C     10.35913      6.23373      4.25547        -0.039246      0.366520     -0.199443
C      7.29314     10.40319      3.19606        -1.082711     -0.056839      0.193145
C      6.23373     10.35913      4.25547         0.365669      0.085591     -0.541425
C      7.29314      0.08601      7.29314        -0.431663      0.032855     -0.525333
C      6.23373      0.13007      6.23373         0.181383      0.127972      0.126722
C      3.19606      0.08601      3.19606         0.696892      0.024178      0.164506
C      4.25547      0.13007      4.25547        -0.172765     -0.052751     -0.359436
C      3.19606     10.40319      7.29314         0.390946     -0.025952     -0.886955
C      4.25547     10.35913      6.23373        -0.155322     -0.078063      0.099058
C      3.19606      7.29314     10.40319         0.605343     -0.394406      0.002585
C      4.25547      6.23373     10.35913        -0.113484      0.182615      0.000472
C      7.29314      7.29314      0.08601        -0.409239     -0.316709     -0.014693
C      6.23373      6.23373      0.13007         0.184148      0.188668     -0.064883
C      3.19606      3.19606      0.08601         0.289195      0.479212     -0.023705
C      4.25547      4.25547      0.13007        -0.403291     -0.230608     -0.032722
C      7.29314      3.19606     10.40319        -0.278954      0.592670     -0.011261
C      6.23373      4.25547     10.35913         0.004641     -0.114728      0.021025
O     10.43466      3.58206      8.50569        -0.028570      0.093850      0.320883
O     10.54374     17.39634      8.50569         0.062773     -0.129566      0.591348
O     10.54374      3.58206     12.47271         0.027553      0.106499     -0.391756
O     10.43466     17.39634     12.47271         0.089930     -0.047216     -0.384688
O      8.50569     10.43466      3.58206         0.709850     -0.061954      0.012455
O      8.50569     10.54374     17.39634         0.480341      0.058039     -0.078317
O     12.47271     10.54374      3.58206        -0.650860      0.116386      0.205081
O     12.47271     10.43466     17.39634        -0.285181     -0.004615      0.020854
O      3.58206      8.50569     10.43466         0.040842      0.460836     -0.068321
O     17.39634      8.50569     10.54374        -0.060321      0.453845      0.056688
O      3.58206     12.47271     10.54374         0.114604     -0.582924      0.002021
O     17.39634     12.47271     10.43466        -0.172675     -0.742476     -0.056710
O      3.58206     10.43466      8.50569         0.211949     -0.061721      0.782964
O     17.39634     10.54374      8.50569        -0.099796      0.075598      0.559009
O      3.58206     10.54374     12.47271        -0.001557     -0.001802     -0.267882
O     17.39634     10.43466     12.47271         0.037976     -0.012443     -0.224845
O     10.43466      8.50569      3.58206        -0.104679      0.569475     -0.114724
O     10.54374      8.50569     17.39634         0.068212      0.504869     -0.089736
O     10.54374     12.47271      3.58206         0.104897     -0.625427      0.133468
O     10.43466     12.47271     17.39634        -0.059442     -0.651876     -0.253685
O      8.50569      3.58206     10.43466         0.395176      0.026571     -0.035559
O      8.50569     17.39634     10.54374         0.629058     -0.154385      0.048309
O     12.47271      3.58206     10.54374        -0.507510      0.126783      0.035877
O     12.47271     17.39634     10.43466        -0.622113     -0.133456      0.039472
O     11.90042     11.90042     19.56718        -0.273754     -0.306994      0.234154
O     19.56718     19.56718     19.56718         0.303365      0.318197      0.300001
O     19.56718     11.90042     11.90042         0.284825     -0.324463     -0.231568
O     11.90042     19.56718     11.90042        -0.316763      0.229602     -0.202319
O      9.45224      1.03696      9.45224        -0.085441      0.086976     -0.065687
O      1.03696      9.45224      9.45224         0.103752     -0.118241     -0.045486
O      1.03696      1.03696      1.03696         0.083256      0.056162      0.098185
O      9.45224      9.45224      1.03696        -0.060790     -0.131477      0.131706
Zr     10.48920      2.52580     10.48920         0.031599     -0.090717      0.077050
Zr     10.48920     18.45260     10.48920        -0.170720      0.260688     -0.346874
Zr     10.48920     10.48920      2.52580         0.120584      0.354130     -0.349514
Zr     10.48920     10.48920     18.45260        -0.083316     -0.203814      0.183053
Zr      2.52580     10.48920     10.48920        -0.255512      0.125923      0.228191
Zr     18.45260     10.48920     10.48920         0.227029     -0.115220     -0.004413
Pd      9.39301     14.25874      9.35988         0.006482      0.042058     -0.047197
Pd      8.62303     13.70342     12.98892        -0.010833     -0.020490      0.014773
Pd     12.03218     14.41364      8.74717         0.016150     -0.014264      0.000113
Pd     12.76614     12.81328     10.63173        -0.036539      0.029671      0.028591
Pd     12.15290      7.10956     12.61369        -0.010856      0.007721      0.001762
Pd     11.21315     14.83303     11.50628        -0.023863      0.030387     -0.031687
Pd     10.08152     12.49474     11.11552        -0.054960      0.057571     -0.039916
Pd     13.48214     12.13682      7.98106         0.005243      0.006847      0.007933
Pd     11.48063     11.55719      6.11165         0.004426      0.005603      0.003150
Pd      7.85526      8.55669      7.54611         0.009214     -0.040630     -0.013579
Pd      8.73805     11.73065      6.88705        -0.007235      0.007307     -0.018937
Pd     10.30971      9.46143      8.14183        -0.000098      0.005324      0.009397
Pd      8.50627     14.43429      6.84582        -0.008436      0.012730     -0.032129
Pd     12.37006      9.03529      6.58559        -0.005102      0.008760      0.012451
Pd      9.74397      9.60906      5.55336         0.001849      0.008423      0.001782
Pd      6.87580      9.46244     12.19010        -0.005331      0.008676     -0.001329
Pd     12.21018      6.68828      7.86918         0.000101      0.015648      0.020323
Pd      5.95337     10.46664      9.73163        -0.012172     -0.014901     -0.004198
Pd      7.57552      7.13031     13.25080         0.007352      0.030305      0.053413
Ir     11.80197      9.69563     13.06071        -0.025528     -0.011541     -0.000216
Ir     13.57964      8.99362     11.44361        -0.018327      0.011759      0.015243
Ir      9.42313      8.82756     13.87555        -0.020465     -0.024071      0.085781
Ir     10.56253     10.90560     14.88434        -0.009081     -0.019025      0.083312
Ir      7.29416     12.03234     11.36970         0.006338     -0.028743      0.005097
Ir     14.69113     10.83910     10.09860        -0.003781      0.038506      0.037332
Ir     12.20176     10.48085      9.65449        -0.018351      0.007746     -0.015079
Ir      8.79051     11.04528     13.02216        -0.029561      0.033993     -0.064735
Ir     10.14710      9.85498     11.22072        -0.008547      0.033424     -0.055827
Ir     13.76262     11.36312     12.41612        -0.034582      0.001727      0.061230
Ir     11.64270     12.28558     13.11504        -0.078246      0.002167     -0.009402
Ir      8.53425     11.07025      9.38508        -0.029476      0.016861     -0.020005
Ir     11.59952      7.97135     10.06714         0.008824      0.021886      0.011720
Ir      7.24024     12.99552      8.69919         0.013611      0.022054      0.012098
Ir      9.51709      7.00113      9.10386         0.010377     -0.006879      0.041051
Ir      8.07194      8.74375     10.10424        -0.006660      0.012937     -0.010878
Ir     10.76075     12.09088      8.53876         0.000249      0.008263     -0.030488
Ir      9.57508      7.43981     11.65875        -0.021925      0.046089      0.044520
Ir     13.70241      8.69580      8.80379         0.002107      0.022621      0.020826
