152
# total energy = -1003.04964288 eVH     10.35389      5.87395      7.64558        -0.047638      0.190859      0.907979
H     10.62451     15.10445      7.64558        -0.139578     -0.131520      1.085470
H     10.62451      5.87395     13.33282        -0.045892      0.005175     -0.986306
H     10.35389     15.10445     13.33282        -0.072824     -0.190379     -0.872639
H      7.64558     10.35389      5.87395         0.808341      0.263827     -0.176460
H      7.64558     10.62451     15.10445         0.790567      0.423976      0.031645
H     13.33282     10.62451      5.87395        -0.497788     -0.010015      0.126439
H     13.33282     10.35389     15.10445        -0.669947     -0.197617      0.047467
H      5.87395      7.64558     10.35389        -0.249584      2.042220      0.290235
H     15.10445      7.64558     10.62451        -0.013406      1.192769     -0.069188
H      5.87395     13.33282     10.62451         0.175005     -0.833420     -0.002448
H     15.10445     13.33282     10.35389         0.093711     -1.149947     -0.280334
H      5.87395     10.35389      7.64558        -0.586179      0.264378      1.224905
H     15.10445     10.62451      7.64558         0.111518      0.649514      1.602189
H      5.87395     10.62451     13.33282        -0.149018      0.453680     -1.177541
H     15.10445     10.35389     13.33282         1.203942      0.038011     -1.128981
H     10.35389      7.64558      5.87395         0.406962      1.361545     -0.055068
H     10.62451      7.64558     15.10445         0.422913      0.906957     -0.039924
H     10.62451     13.33282      5.87395        -0.319924     -0.787204      0.054936
H     10.35389     13.33282     15.10445        -0.119036     -0.453330     -0.153841
H      7.64558      5.87395     10.35389         0.982357     -0.163988     -0.118831
H      7.64558     15.10445     10.62451         0.566934     -0.203091     -0.027588
H     13.33282      5.87395     10.62451        -1.004964      0.040949      0.339959
H     13.33282     15.10445     10.35389        -0.406064     -0.097900     -0.042765
H     12.45634     12.45634     19.01126         0.266522      0.234152     -0.245503
H     19.01126     19.01126     19.01126        -0.262674     -0.255675     -0.231462
H     19.01126     12.45634     12.45634        -0.258688      0.266976      0.232530
H     12.45634     19.01126     12.45634         0.264729     -0.266046      0.226059
C     10.35284      5.61067      6.59456        -0.159352     -0.962876     -0.932411
C     10.62556     15.36773      6.59456         0.067865      0.425015     -0.908984
C     10.62556      5.61067     14.38384        -0.124738     -0.655358      1.292341
C     10.35284     15.36773     14.38384         0.087044      0.313699      0.918977
C      6.59456     10.35284      5.61067        -1.519327      0.179402     -0.909590
C      6.59456     10.62556     15.36773        -0.992097      0.229338      0.733438
C     14.38384     10.62556      5.61067         1.296195      0.140884     -0.896275
C     14.38384     10.35284     15.36773         1.322028      0.055764      0.809540
C      5.61067      6.59456     10.35284        -0.787526     -1.175029      0.038922
C     15.36773      6.59456     10.62556         0.547596     -0.330267      0.027251
C      5.61067     14.38384     10.62556        -0.375699      0.936294      0.007979
C     15.36773     14.38384     10.35284         0.378650      1.412068      0.013118
C      5.61067     10.35284      6.59456        -0.306551     -0.035213     -1.477841
C     15.36773     10.62556      6.59456         0.378686     -0.033693     -1.243352
C      5.61067     10.62556     14.38384        -0.340969     -0.019388      1.044559
C     15.36773     10.35284     14.38384         0.103084     -0.058417      1.746615
C     10.35284      6.59456      5.61067        -0.024120     -1.211228     -0.609058
C     10.62556      6.59456     15.36773        -0.016571     -0.801297      0.600287
C     10.62556     14.38384      5.61067         0.012539      0.710599     -0.528035
C     10.35284     14.38384     15.36773        -0.030483      0.419293      0.371691
C      6.59456      5.61067     10.35284        -0.439823     -1.182532      0.126382
C      6.59456     15.36773     10.62556        -0.677569      0.494050      0.030824
C     14.38384      5.61067     10.62556         0.498170     -0.742495     -0.166325
C     14.38384     15.36773     10.35284         0.362372      0.535317     -0.058434
C     10.40319      3.19606      7.29314        -0.023039      0.317256     -0.979471
C     10.35913      4.25547      6.23373        -0.041721     -0.492022      0.170830
C      0.08601      7.29314      7.29314        -0.025492     -0.681792     -0.331016
C      0.13007      6.23373      6.23373        -0.033716      0.392350      0.452719
C      0.08601      3.19606      3.19606        -0.010119      0.466868      0.496754
C      0.13007      4.25547      4.25547        -0.008517     -0.470218     -0.381608
C     10.40319      7.29314      3.19606        -0.047070     -0.708541      0.239644
C     10.35913      6.23373      4.25547         0.017320      0.267578     -0.635753
C      7.29314     10.40319      3.19606        -0.635866     -0.012248      0.166844
C      6.23373     10.35913      4.25547         0.310043     -0.042864     -0.381702
C      7.29314      0.08601      7.29314        -0.758155     -0.075757     -0.326698
C      6.23373      0.13007      6.23373         0.600970     -0.191092      0.327402
C      3.19606      0.08601      3.19606         0.766604     -0.041620      0.240142
C      4.25547      0.13007      4.25547        -0.496492     -0.259309     -0.387911
C      3.19606     10.40319      7.29314         0.385207      0.003212     -0.160378
C      4.25547     10.35913      6.23373        -0.273898     -0.035272      0.348178
C      3.19606      7.29314     10.40319         0.309237     -0.444408      0.022375
C      4.25547      6.23373     10.35913        -0.888533      0.136443      0.063109
C      7.29314      7.29314      0.08601        -0.423676     -0.374819     -0.023589
C      6.23373      6.23373      0.13007         0.699731      0.082791      0.008790
C      3.19606      3.19606      0.08601         0.770552      0.335308     -0.022396
C      4.25547      4.25547      0.13007        -0.175024     -0.750261     -0.051129
C      7.29314      3.19606     10.40319        -0.447780      0.494755      0.016271
C      6.23373      4.25547     10.35913         0.390992     -0.714760      0.078632
O     10.43466      3.58206      8.50569         0.093064      0.256939      0.799253
O     10.54374     17.39634      8.50569         0.019583     -0.119215      0.373387
O     10.54374      3.58206     12.47271         0.082200      0.152979     -0.511453
O     10.43466     17.39634     12.47271        -0.033223     -0.089908     -0.338526
O      8.50569     10.43466      3.58206         0.669130     -0.075546      0.221245
O      8.50569     10.54374     17.39634         0.750168     -0.033942     -0.232348
O     12.47271     10.54374      3.58206        -0.741406      0.107087      0.265270
O     12.47271     10.43466     17.39634        -0.498325      0.015075     -0.208556
O      3.58206      8.50569     10.43466         0.185412      0.600755     -0.035979
O     17.39634      8.50569     10.54374        -0.151142      0.536319      0.037572
O      3.58206     12.47271     10.54374         0.084394     -0.428180      0.039318
O     17.39634     12.47271     10.43466        -0.157621     -0.584979     -0.034038
O      3.58206     10.43466      8.50569         0.155111     -0.023198      0.322320
O     17.39634     10.54374      8.50569        -0.055437      0.081250      0.344760
O      3.58206     10.54374     12.47271         0.067666      0.049392     -0.302038
O     17.39634     10.43466     12.47271        -0.073712     -0.024047     -0.244804
O     10.43466      8.50569      3.58206        -0.083556      0.692631      0.199101
O     10.54374      8.50569     17.39634        -0.044997      0.676701     -0.197406
O     10.54374     12.47271      3.58206         0.053059     -0.541966      0.120626
O     10.43466     12.47271     17.39634        -0.029231     -0.313747      0.001197
O      8.50569      3.58206     10.43466         0.629184      0.152115     -0.045461
O      8.50569     17.39634     10.54374         0.580043     -0.177359      0.023669
O     12.47271      3.58206     10.54374        -0.739167      0.115885      0.015716
O     12.47271     17.39634     10.43466        -0.546128     -0.134180     -0.033527
O     11.90042     11.90042     19.56718        -0.308772     -0.244861      0.259951
O     19.56718     19.56718     19.56718         0.302129      0.311217      0.248933
O     19.56718     11.90042     11.90042         0.318353     -0.302370     -0.247754
O     11.90042     19.56718     11.90042        -0.317326      0.333580     -0.229801
O      9.45224      1.03696      9.45224        -0.026635      0.102410     -0.096717
O      1.03696      9.45224      9.45224         0.044893     -0.021079     -0.102464
O      1.03696      1.03696      1.03696         0.035606      0.094269      0.093699
O      9.45224      9.45224      1.03696        -0.051763     -0.028295      0.114806
Zr     10.48920      2.52580     10.48920        -0.177608     -0.323925      0.176241
Zr     10.48920     18.45260     10.48920         0.086198      0.085850      0.017304
Zr     10.48920     10.48920      2.52580         0.005854      0.033974     -0.364230
Zr     10.48920     10.48920     18.45260         0.055582     -0.017632      0.278565
Zr      2.52580     10.48920     10.48920        -0.092722     -0.132634     -0.003042
Zr     18.45260     10.48920     10.48920         0.097699     -0.000017     -0.009658
Pd     11.97337      8.48902     10.25467        -0.035568      0.045917     -0.009104
Pd      7.26922      9.83573     10.52507         0.003645     -0.053108      0.008616
Pd      7.19748     12.12160     11.84953        -0.021226     -0.000949      0.013088
Pd     12.03314     13.43741      7.55788        -0.014436     -0.013521     -0.013993
Pd     11.53538      8.15972      7.51462        -0.031460     -0.012448      0.029406
Pd      8.77813      7.35428      7.15126         0.084379      0.012348     -0.061587
Pd     11.66341     11.14398      6.19140        -0.069740      0.184387      0.012961
Pd     13.84882      9.24317      7.65326         0.056666      0.084798     -0.011534
Pd      9.53662     11.88908      7.59896        -0.021229      0.019964      0.029905
Pd      7.05125      7.33556     11.96348         0.086997      0.058494     -0.007595
Pd      7.01838      7.62708      8.91118        -0.095050     -0.030068     -0.073583
Pd      7.50063      9.55272     13.26020        -0.050232     -0.059043     -0.024415
Pd     11.34729      5.92827      9.23843         0.015394      0.026942     -0.055288
Pd      9.58966      9.66545      6.03472         0.032188     -0.045315      0.092353
Pd      9.33379     14.16704      9.00776        -0.091742     -0.041872     -0.049417
Pd     11.43811      6.44285     11.82691        -0.030900      0.009647     -0.020665
Pd      9.78591      9.37138      9.01074        -0.101504     -0.070511      0.013194
Pd      9.38180     11.70647     10.26985        -0.055358     -0.024243     -0.009636
Pd      9.31025      7.11022     10.36917         0.008733      0.003142     -0.035150
Pd      9.07216      7.31510     13.60651        -0.019450     -0.046880      0.027475
Pd      9.55876      9.30520     11.69517        -0.121993     -0.085664      0.025022
Pd     11.89991     10.90566      8.79983         0.013141     -0.047284     -0.058673
Pd      7.18153     12.37908      9.06285        -0.028690     -0.018885      0.038930
Pd      7.63213      9.94492      7.91304         0.078015      0.037741      0.076227
Pd     13.75193      6.95540      8.83471         0.029283      0.008659     -0.034940
Pd     13.79712      7.76678     12.16323        -0.025700     -0.028340     -0.007457
Pd      9.46271     11.63252     13.10462        -0.010432     -0.066753      0.039987
Pd     14.15444     12.28502      8.72590        -0.063957      0.034527     -0.001739
Pd     13.50039     10.32044     12.78146        -0.143619      0.035500     -0.101712
Pd     14.12254     10.00093     10.23171        -0.009023      0.014923      0.017781
Pd     11.54449     11.00375     11.42590         0.066451     -0.099783      0.019666
Pd     11.58794     13.39228     10.14364        -0.003439     -0.025531     -0.104865
Pd     13.76035     12.52802     11.41052        -0.004817      0.023959      0.028024
Pd     11.71517     13.35930     12.86089        -0.023466      0.019980     -0.045724
Pd     11.67889     11.27752     14.48700         0.003247      0.024554     -0.026875
Pd     11.49428      8.73078     13.26520         0.044865     -0.020819      0.001974
Pd      9.62213      9.69051     14.97759        -0.077989     -0.041257      0.047966
Pd      9.31433     13.94817     11.69443        -0.029801     -0.034917     -0.026340
