152
# total energy = -1093.15605716 eVH     10.35389      5.87395      7.64558        -0.045274     -0.119052      1.173468
H     10.62451     15.10445      7.64558        -0.162714      0.084298      1.375904
H     10.62451      5.87395     13.33282         0.150159     -0.037377     -1.071078
H     10.35389     15.10445     13.33282         0.018323     -0.054710     -0.881489
H      7.64558     10.35389      5.87395         0.528061      0.023729     -0.099880
H      7.64558     10.62451     15.10445         0.404504     -0.001898      0.005980
H     13.33282     10.62451      5.87395        -0.668719     -0.034391      0.002635
H     13.33282     10.35389     15.10445        -0.429836     -0.013875     -0.018459
H      5.87395      7.64558     10.35389        -0.145480      1.334636      0.053662
H     15.10445      7.64558     10.62451        -0.018232      0.444723      0.030298
H      5.87395     13.33282     10.62451        -0.077833     -0.225449      0.043824
H     15.10445     13.33282     10.35389         0.186431     -1.511734      0.104099
H      5.87395     10.35389      7.64558        -0.083277     -0.773984      0.493114
H     15.10445     10.62451      7.64558         0.446886      0.800100      0.226163
H      5.87395     10.62451     13.33282        -0.002971     -0.175811     -0.267211
H     15.10445     10.35389     13.33282        -0.068029      0.231418     -0.185963
H     10.35389      7.64558      5.87395        -0.112459      0.431202      0.097650
H     10.62451      7.64558     15.10445         0.052315      0.500314      0.281655
H     10.62451     13.33282      5.87395         0.095105     -0.405685     -0.197710
H     10.35389     13.33282     15.10445        -0.138085     -0.566013      0.173815
H      7.64558      5.87395     10.35389         0.490705     -0.037457     -0.049809
H      7.64558     15.10445     10.62451         0.300599      0.028890     -0.029069
H     13.33282      5.87395     10.62451        -0.196363     -0.083435     -0.008013
H     13.33282     15.10445     10.35389        -0.499984      0.088724     -0.017444
H     12.45634     12.45634     19.01126         0.265165      0.247850     -0.245142
H     19.01126     19.01126     19.01126        -0.263298     -0.242597     -0.252307
H     19.01126     12.45634     12.45634        -0.265788      0.261766      0.232718
H     12.45634     19.01126     12.45634         0.275012     -0.255390      0.226025
C     10.35284      5.61067      6.59456        -0.145412     -0.316507     -1.785186
C     10.62556     15.36773      6.59456         0.423620      0.133692     -1.855050
C     10.62556      5.61067     14.38384        -0.348512     -0.124063      1.707613
C     10.35284     15.36773     14.38384         0.227487      0.148016      1.622289
C      6.59456     10.35284      5.61067        -0.936484     -0.120159     -0.322744
C      6.59456     10.62556     15.36773        -0.830893     -0.007931      0.118575
C     14.38384     10.62556      5.61067         1.031417      0.042094     -0.236305
C     14.38384     10.35284     15.36773         0.773239     -0.023965      0.169454
C      5.61067      6.59456     10.35284        -0.101601     -1.665277      0.065615
C     15.36773      6.59456     10.62556         0.320197     -0.910223      0.037083
C      5.61067     14.38384     10.62556        -0.422482      0.800530      0.044513
C     15.36773     14.38384     10.35284         0.059733      1.804951     -0.075566
C      5.61067     10.35284      6.59456        -0.768464      0.292087     -1.840187
C     15.36773     10.62556      6.59456         0.733734     -0.212210     -1.929951
C      5.61067     10.62556     14.38384        -0.674310      0.090584      1.614507
C     15.36773     10.35284     14.38384         0.556691     -0.060971      1.394764
C     10.35284      6.59456      5.61067         0.025759     -1.538241     -0.746278
C     10.62556      6.59456     15.36773        -0.050050     -1.912609      0.696444
C     10.62556     14.38384      5.61067         0.088093      1.832538     -0.852782
C     10.35284     14.38384     15.36773         0.036678      1.852863      0.612437
C      6.59456      5.61067     10.35284        -0.889275     -0.812755     -0.033430
C      6.59456     15.36773     10.62556        -1.025916      0.572534      0.073202
C     14.38384      5.61067     10.62556         0.953295     -0.683304      0.088847
C     14.38384     15.36773     10.35284         0.875196      0.873384     -0.002956
C     10.40319      3.19606      7.29314        -0.005254      0.529664     -0.578041
C     10.35913      4.25547      6.23373        -0.008742     -0.830393      0.538126
C      0.08601      7.29314      7.29314         0.013831     -0.464434     -0.572522
C      0.13007      6.23373      6.23373         0.058897      0.847578      0.449530
C      0.08601      3.19606      3.19606         0.027485      0.691592      0.462002
C      0.13007      4.25547      4.25547        -0.041649     -0.738567     -0.483625
C     10.40319      7.29314      3.19606        -0.017765     -0.818526      0.480439
C     10.35913      6.23373      4.25547         0.008469      0.562761     -0.510203
C      7.29314     10.40319      3.19606        -0.314506     -0.006638      0.500087
C      6.23373     10.35913      4.25547         0.187851     -0.078319     -0.148317
C      7.29314      0.08601      7.29314        -0.254512     -0.030748     -0.379858
C      6.23373      0.13007      6.23373         0.154658     -0.095639      0.370924
C      3.19606      0.08601      3.19606         0.422154      0.013814      0.483945
C      4.25547      0.13007      4.25547        -0.205615      0.069814     -0.197963
C      3.19606     10.40319      7.29314         0.220947      0.034164     -0.506796
C      4.25547     10.35913      6.23373        -0.188799      0.105553      0.341320
C      3.19606      7.29314     10.40319         0.171924     -0.318462      0.009074
C      4.25547      6.23373     10.35913        -0.570255      0.174885      0.052885
C      7.29314      7.29314      0.08601        -0.587342     -0.466970      0.003282
C      6.23373      6.23373      0.13007         0.120138      0.193009     -0.058478
C      3.19606      3.19606      0.08601         0.558469      0.462053      0.004814
C      4.25547      4.25547      0.13007        -0.068005     -0.101346     -0.036676
C      7.29314      3.19606     10.40319        -0.218942      0.335877      0.010634
C      6.23373      4.25547     10.35913         0.591259     -0.247861      0.017317
O     10.43466      3.58206      8.50569         0.016280      0.237627      0.498641
O     10.54374     17.39634      8.50569        -0.028935     -0.238946      0.515674
O     10.54374      3.58206     12.47271         0.080823      0.159588     -0.396035
O     10.43466     17.39634     12.47271        -0.101330     -0.117613     -0.354557
O      8.50569     10.43466      3.58206         0.413089     -0.021663      0.075080
O      8.50569     10.54374     17.39634         0.470079      0.059460     -0.124850
O     12.47271     10.54374      3.58206        -0.501884     -0.010185      0.093255
O     12.47271     10.43466     17.39634        -0.416589     -0.054285     -0.103295
O      3.58206      8.50569     10.43466         0.164399      0.424367     -0.056081
O     17.39634      8.50569     10.54374        -0.089187      0.563933      0.048315
O      3.58206     12.47271     10.54374         0.048039     -0.533420      0.039008
O     17.39634     12.47271     10.43466        -0.173719     -0.453909     -0.025192
O      3.58206     10.43466      8.50569         0.188044     -0.014518      0.492918
O     17.39634     10.54374      8.50569        -0.124200     -0.009556      0.458704
O      3.58206     10.54374     12.47271         0.178704      0.089094     -0.484811
O     17.39634     10.43466     12.47271        -0.191382     -0.081645     -0.527446
O     10.43466      8.50569      3.58206         0.047430      0.663201      0.270699
O     10.54374      8.50569     17.39634         0.057289      0.490089     -0.211187
O     10.54374     12.47271      3.58206        -0.019932     -0.633726      0.268186
O     10.43466     12.47271     17.39634        -0.033616     -0.526473     -0.219362
O      8.50569      3.58206     10.43466         0.517368      0.151525     -0.030964
O      8.50569     17.39634     10.54374         0.621663     -0.095404      0.045426
O     12.47271      3.58206     10.54374        -0.625996      0.102122      0.035350
O     12.47271     17.39634     10.43466        -0.485434     -0.138304     -0.017246
O     11.90042     11.90042     19.56718        -0.307416     -0.283759      0.270811
O     19.56718     19.56718     19.56718         0.315481      0.270328      0.289975
O     19.56718     11.90042     11.90042         0.324248     -0.307410     -0.235760
O     11.90042     19.56718     11.90042        -0.328770      0.281181     -0.223717
O      9.45224      1.03696      9.45224        -0.030868      0.060691     -0.065948
O      1.03696      9.45224      9.45224         0.036664     -0.079811     -0.059102
O      1.03696      1.03696      1.03696         0.034070      0.051542      0.131265
O      9.45224      9.45224      1.03696        -0.024384     -0.089210      0.134414
Zr     10.48920      2.52580     10.48920        -0.107584     -0.130223     -0.012098
Zr     10.48920     18.45260     10.48920         0.110512      0.188742     -0.101703
Zr     10.48920     10.48920      2.52580        -0.009859      0.110415     -0.320689
Zr     10.48920     10.48920     18.45260        -0.034157     -0.014467      0.145554
Zr      2.52580     10.48920     10.48920        -0.048509     -0.029978     -0.050791
Zr     18.45260     10.48920     10.48920         0.089545      0.111025     -0.143498
Pd     12.91196      8.09481      7.61150         0.000908     -0.006220     -0.000946
Pd      9.57310     14.56842     11.75179         0.007118     -0.001886      0.010654
Pd     12.30227     10.86511     10.41952         0.011653     -0.002449     -0.016385
Pd     14.63551      9.94696     11.58457        -0.011556      0.008394      0.004543
Pd     10.92146      9.33421      6.10715        -0.016619     -0.003473      0.003544
Pd      6.88825      8.54705      8.97417         0.000582      0.008648     -0.008927
Ir     10.24275     11.84122     11.75291        -0.006048     -0.006247      0.001905
Ir     12.87635      8.25974     10.29064        -0.002723      0.011906     -0.004973
Ir     12.28221     10.96998      7.71790        -0.001595     -0.004230     -0.015016
Ir      9.68033     14.38640      9.15872         0.003516     -0.002085      0.014097
Ir     10.76418      9.16824     11.69940        -0.001924     -0.012314      0.001421
Ir      8.66743     10.08418      7.74858        -0.023255     -0.005351      0.007689
Ir     13.85129     12.48899      9.05020         0.015666     -0.002696     -0.027444
Ir     11.96464     13.55198      7.82334        -0.005508      0.011152     -0.001073
Ir     14.27533      9.87950      9.00841        -0.007936     -0.008617     -0.011764
Ir      9.16578      7.44115     10.35606         0.004197     -0.002205      0.013776
Ir      8.14974     12.76832      7.83169         0.006587      0.008406     -0.010596
Ir      9.11069      7.60973      7.79220        -0.004817     -0.008232      0.011156
Ir     11.86127     13.48534     13.02659        -0.014218     -0.004902     -0.003651
Ir     11.34332      6.66685     11.67930        -0.005292      0.015291      0.008406
Ir     10.22896     11.81400      9.07394         0.003455      0.003022      0.007596
Ir     12.85903      8.29395     12.94767        -0.011422      0.025213      0.007714
Ir     10.78411      9.15244      8.96338         0.004160      0.000023     -0.012953
Ir     11.78424     13.56926     10.41895         0.027581     -0.002654      0.000133
Ir     13.82495     12.56619     11.77771         0.021906      0.014746     -0.004460
Ir     12.35414     10.95719     13.08219         0.003756      0.006427     -0.013724
Ir     10.10339     11.72455      6.48800        -0.007906     -0.011394     -0.002317
Ir     11.27869      6.57135      9.18037         0.005335     -0.003466      0.005459
Ir      7.16539      8.36735     11.78688        -0.010422      0.001201      0.009517
Ir      8.16554     12.70973     10.42999        -0.000122      0.009535      0.011834
Ir     10.85232      9.25162     14.25893        -0.005572      0.003705     -0.021545
Ir      8.07049     12.53697     12.98269         0.006821     -0.016796      0.010181
Ir      6.54221     11.28447      9.05863        -0.004326     -0.008339      0.002610
Ir      8.62841     10.04522     13.04288        -0.000836     -0.009165     -0.019860
Ir      6.54915     10.91442     11.52156         0.012163      0.015765     -0.011850
Ir      9.10221      7.46148     13.02243        -0.014868      0.018322      0.002233
Ir     10.17761     11.64812     14.35744         0.001160     -0.002785     -0.010597
Ir      8.68900     10.06535     10.38939        -0.010937     -0.003392      0.000427
