152
# total energy = -1004.79735477 eVH     10.35389      5.87395      7.64558         0.036972      0.065200      0.661205
H     10.62451     15.10445      7.64558        -0.124584     -0.157370      0.529705
H     10.62451      5.87395     13.33282         0.421515      0.035845     -0.829732
H     10.35389     15.10445     13.33282         0.040710     -0.160442     -0.466500
H      7.64558     10.35389      5.87395         0.346383      0.027702      0.157638
H      7.64558     10.62451     15.10445         0.928346      0.576967      0.009114
H     13.33282     10.62451      5.87395        -0.557898      0.348369      0.030325
H     13.33282     10.35389     15.10445        -0.956026     -0.256460      0.131878
H      5.87395      7.64558     10.35389         0.297570      1.453521      0.172282
H     15.10445      7.64558     10.62451        -0.105956      0.544752      0.250836
H      5.87395     13.33282     10.62451         0.189349     -0.576140      0.004565
H     15.10445     13.33282     10.35389         0.031787     -1.104497     -0.366514
H      5.87395     10.35389      7.64558         0.181944      0.038697      0.464832
H     15.10445     10.62451      7.64558        -0.140974      0.605490      0.842942
H      5.87395     10.62451     13.33282        -0.022479      0.575743     -1.276056
H     15.10445     10.35389     13.33282         0.013741     -0.162654     -0.741863
H     10.35389      7.64558      5.87395         0.082776      1.388823      0.030052
H     10.62451      7.64558     15.10445         0.535567      0.712933     -0.120997
H     10.62451     13.33282      5.87395        -0.366775     -0.753412      0.295461
H     10.35389     13.33282     15.10445        -0.165288     -0.475257     -0.316378
H      7.64558      5.87395     10.35389         0.968459     -0.014360     -0.207416
H      7.64558     15.10445     10.62451         0.805219     -0.188551     -0.022180
H     13.33282      5.87395     10.62451        -0.591644      0.162156      0.534989
H     13.33282     15.10445     10.35389        -0.461124     -0.077166     -0.179352
H     12.45634     12.45634     19.01126         0.258619      0.269341     -0.228639
H     19.01126     19.01126     19.01126        -0.275431     -0.261071     -0.223639
H     19.01126     12.45634     12.45634        -0.276434      0.259698      0.222187
H     12.45634     19.01126     12.45634         0.237545     -0.270385      0.262405
C     10.35284      5.61067      6.59456        -0.284286     -0.807460     -0.082499
C     10.62556     15.36773      6.59456         0.029743      0.225518     -0.341768
C     10.62556      5.61067     14.38384        -0.064696     -0.428034      0.529871
C     10.35284     15.36773     14.38384         0.001651      0.304802      0.453821
C      6.59456     10.35284      5.61067        -0.373243      0.024620     -0.207912
C      6.59456     10.62556     15.36773        -1.001473      0.178549      0.721173
C     14.38384     10.62556      5.61067         0.277917     -0.323207     -0.758399
C     14.38384     10.35284     15.36773         1.103993     -0.074274      0.255976
C      5.61067      6.59456     10.35284        -0.784666     -0.406873     -0.355621
C     15.36773      6.59456     10.62556         0.646274     -0.118596     -0.284653
C      5.61067     14.38384     10.62556        -0.197242      0.634892     -0.002242
C     15.36773     14.38384     10.35284         0.310564      1.052338      0.077341
C      5.61067     10.35284      6.59456        -0.271158      0.010814     -0.762555
C     15.36773     10.62556      6.59456         0.548699     -0.149915      0.072911
C      5.61067     10.62556     14.38384        -0.661791     -0.019580      0.882514
C     15.36773     10.35284     14.38384         0.523918     -0.099770      1.051927
C     10.35284      6.59456      5.61067        -0.039638     -0.866647     -0.511990
C     10.62556      6.59456     15.36773         0.106092     -0.631369      0.478460
C     10.62556     14.38384      5.61067         0.101875      1.166834     -0.299959
C     10.35284     14.38384     15.36773        -0.023818      0.988858      0.523621
C      6.59456      5.61067     10.35284         0.001852     -1.184469      0.238334
C      6.59456     15.36773     10.62556        -0.965882      0.163635      0.110088
C     14.38384      5.61067     10.62556        -0.028678     -0.448806     -0.387089
C     14.38384     15.36773     10.35284         0.177731      0.504347     -0.068288
C     10.40319      3.19606      7.29314         0.017203      1.032829     -0.454934
C     10.35913      4.25547      6.23373         0.075199     -0.641603      0.088526
C      0.08601      7.29314      7.29314        -0.029460     -0.904132     -0.177629
C      0.13007      6.23373      6.23373        -0.069215      0.257320      0.335620
C      0.08601      3.19606      3.19606         0.036428      1.310347      0.181187
C      0.13007      4.25547      4.25547        -0.026233     -0.411665     -0.323658
C     10.40319      7.29314      3.19606         0.008264     -0.432375      0.293693
C     10.35913      6.23373      4.25547         0.017778      0.059179     -0.873747
C      7.29314     10.40319      3.19606        -0.255892      0.019226      0.583486
C      6.23373     10.35913      4.25547         0.175380      0.080659     -0.106987
C      7.29314      0.08601      7.29314        -1.135351     -0.088053     -0.291123
C      6.23373      0.13007      6.23373         0.817497     -0.218795      0.382355
C      3.19606      0.08601      3.19606         1.050988     -0.027502      0.546822
C      4.25547      0.13007      4.25547        -0.629533     -0.178928     -0.579850
C      3.19606     10.40319      7.29314         0.601013      0.009658     -0.579225
C      4.25547     10.35913      6.23373        -0.286940      0.110320      0.240604
C      3.19606      7.29314     10.40319         0.342552     -1.142271      0.033302
C      4.25547      6.23373     10.35913        -1.131239      0.054642      0.147662
C      7.29314      7.29314      0.08601        -0.454136     -0.474951     -0.014001
C      6.23373      6.23373      0.13007         0.476834      0.316762      0.031418
C      3.19606      3.19606      0.08601         0.454585      0.379515     -0.033359
C      4.25547      4.25547      0.13007        -0.071195     -0.629408     -0.079316
C      7.29314      3.19606     10.40319        -0.403843      0.508426      0.065973
C      6.23373      4.25547     10.35913         0.360670     -0.788699      0.196733
O     10.43466      3.58206      8.50569        -0.031229      0.012686      0.415894
O     10.54374     17.39634      8.50569         0.064415     -0.050592      0.268319
O     10.54374      3.58206     12.47271         0.012898     -0.091968     -0.111644
O     10.43466     17.39634     12.47271        -0.035258     -0.153179     -0.531155
O      8.50569     10.43466      3.58206         0.297246     -0.020579      0.019207
O      8.50569     10.54374     17.39634         0.908246     -0.074110     -0.175798
O     12.47271     10.54374      3.58206        -0.844542      0.099746      0.078087
O     12.47271     10.43466     17.39634        -0.552799      0.025555     -0.101746
O      3.58206      8.50569     10.43466         0.170164      1.023090     -0.023650
O     17.39634      8.50569     10.54374        -0.148726      0.644159      0.053463
O      3.58206     12.47271     10.54374         0.103377     -0.503023      0.043319
O     17.39634     12.47271     10.43466        -0.153004     -0.607775     -0.030497
O      3.58206     10.43466      8.50569         0.069039     -0.078033      0.541491
O     17.39634     10.54374      8.50569         0.038223      0.104320      0.349433
O      3.58206     10.54374     12.47271         0.006576      0.037162     -0.461857
O     17.39634     10.43466     12.47271        -0.231763     -0.033886     -0.702993
O     10.43466      8.50569      3.58206        -0.045031      0.529103      0.149899
O     10.54374      8.50569     17.39634        -0.074141      0.731502     -0.208331
O     10.54374     12.47271      3.58206         0.057209     -0.969969      0.182105
O     10.43466     12.47271     17.39634         0.081466     -0.890712     -0.228957
O      8.50569      3.58206     10.43466         0.577301      0.141357     -0.058638
O      8.50569     17.39634     10.54374         0.542049     -0.157874     -0.002499
O     12.47271      3.58206     10.54374        -0.637510      0.161096      0.023184
O     12.47271     17.39634     10.43466        -0.342489      0.020527     -0.045190
O     11.90042     11.90042     19.56718        -0.296516     -0.309074      0.223340
O     19.56718     19.56718     19.56718         0.314584      0.306234      0.214529
O     19.56718     11.90042     11.90042         0.319061     -0.267005     -0.236061
O     11.90042     19.56718     11.90042        -0.252098      0.322197     -0.307646
O      9.45224      1.03696      9.45224        -0.012790      0.065767     -0.152823
O      1.03696      9.45224      9.45224         0.065057     -0.056152     -0.174847
O      1.03696      1.03696      1.03696         0.087353      0.138802      0.051491
O      9.45224      9.45224      1.03696        -0.082467     -0.080366      0.029933
Zr     10.48920      2.52580     10.48920        -0.043798     -0.189702      0.001851
Zr     10.48920     18.45260     10.48920        -0.055391      0.125057      0.216698
Zr     10.48920     10.48920      2.52580        -0.156604     -0.437597     -0.236211
Zr     10.48920     10.48920     18.45260         0.021872      0.021853      0.501241
Zr      2.52580     10.48920     10.48920        -0.262978      0.216354      0.185620
Zr     18.45260     10.48920     10.48920         0.176222     -0.009122     -0.044712
Pd     13.39688      8.70006      9.42915         0.036797      0.058624      0.002120
Pd      5.85854      9.73132     10.06743         0.115074      0.040300     -0.013884
Pd      6.90043     11.51992     11.73341         0.006281     -0.132270      0.026917
Pd     12.17194     13.14212      7.44874         0.070415     -0.097241     -0.051321
Pd     12.15388      7.66335      6.92621        -0.014927      0.011995      0.069995
Pd      8.38151      7.11643      6.77329        -0.035111      0.017372     -0.161577
Pd     11.10358     11.35133      5.61647        -0.064295     -0.001896      0.004850
Pd     14.58618      8.59630      6.98704         0.043774     -0.012231      0.061636
Pd      9.90766     11.68810      8.14971        -0.089641     -0.037943     -0.079464
Pd      6.86025      6.86894     12.20555        -0.075694      0.003367      0.081675
Pd      6.36279      7.52696      8.38064         0.087151     -0.054028      0.001286
Pd      7.11607      9.06754     13.63442        -0.113536      0.038503      0.121075
Pd     11.59042      6.54963      9.25925         0.023473     -0.051669      0.078030
Pd      9.93931      9.33126      6.83148        -0.033519      0.048685     -0.053063
Pd      9.07476     13.91166      9.44151         0.016986      0.018330      0.012180
Pd     10.59499      7.39062     11.49097        -0.105662     -0.167173     -0.121189
Pd     10.59219      9.09091      9.44553        -0.036903      0.018662     -0.022286
Pd      9.42121     11.34038     10.74717         0.015313     -0.008128     -0.059256
Pd      8.95736      7.01120      9.32646         0.001447      0.164106      0.114704
Pd      9.04441      7.32791     13.56497         0.065568     -0.110005      0.057204
Pd      8.27818      8.94785     11.27141         0.020521      0.049324     -0.187315
Pd     12.26476     10.33676      7.73035         0.013087      0.130954      0.027768
Pd      7.27262     11.99163      9.15849         0.015637      0.025642      0.017878
Pd      8.06459      9.56015      8.61544         0.079797     -0.072764      0.098863
Pd     14.11339      6.34032      8.42620         0.069028      0.109295      0.009952
Pd     12.91080      8.53084     12.03762        -0.045375     -0.120884     -0.106792
Pd      8.82432     11.48619     13.49133         0.073364     -0.146993      0.062150
Pd     13.84062     11.96041      9.10310        -0.017800     -0.085068      0.001179
Pd     13.05283     11.01591     13.24886        -0.106100     -0.034156     -0.031929
Pd     14.76907     10.39635     11.10426        -0.121083      0.032452      0.011790
Pd     12.08330     10.73977     10.75785        -0.021905      0.139788     -0.092393
Pd     11.49326     13.19788      9.98713        -0.050629     -0.023667     -0.137025
Pd     13.61723     13.03448     11.64736        -0.021786     -0.022523      0.040866
Pd     11.08613     12.70500     12.54066        -0.069545     -0.061442     -0.026181
Pd     11.06401     11.44818     14.97366         0.131517      0.070860     -0.052303
Pd     10.63752      9.71286     12.79919        -0.007603      0.032380      0.065099
Pd      9.37331      9.43655     15.19569         0.072925     -0.061175      0.013755
Pd      8.64736     13.65864     12.05442         0.012751      0.040589     -0.066613
