152
# total energy = -1023.21090908 eVH     10.35389      5.87395      7.64558         0.488828      0.081312      0.711884
H     10.62451     15.10445      7.64558        -0.117494     -0.044152      0.819159
H     10.62451      5.87395     13.33282         0.143500      0.125694     -0.634293
H     10.35389     15.10445     13.33282        -0.164874     -0.124319     -0.540217
H      7.64558     10.35389      5.87395         0.311167     -0.022705      0.192121
H      7.64558     10.62451     15.10445         0.641871     -0.219135     -0.140749
H     13.33282     10.62451      5.87395        -0.771189     -0.158721      0.204257
H     13.33282     10.35389     15.10445        -0.424378     -0.100440     -0.066973
H      5.87395      7.64558     10.35389         0.207725      1.105953     -0.278059
H     15.10445      7.64558     10.62451        -0.176481      0.475010     -0.125630
H      5.87395     13.33282     10.62451         0.159815     -0.421320     -0.063085
H     15.10445     13.33282     10.35389        -0.131331     -0.908607      0.015628
H      5.87395     10.35389      7.64558         0.133984      0.094950      0.459923
H     15.10445     10.62451      7.64558         0.101551     -0.033359      1.064684
H      5.87395     10.62451     13.33282         0.196757     -0.032158     -0.386069
H     15.10445     10.35389     13.33282        -0.125789     -0.049234     -0.534535
H     10.35389      7.64558      5.87395         0.131479      0.884821      0.186150
H     10.62451      7.64558     15.10445        -0.013184      0.547427     -0.160944
H     10.62451     13.33282      5.87395        -0.017919     -0.589162      0.219730
H     10.35389     13.33282     15.10445        -0.286437     -0.892547     -0.128888
H      7.64558      5.87395     10.35389         0.443421      0.095168     -0.055167
H      7.64558     15.10445     10.62451         0.850191     -0.278689      0.034519
H     13.33282      5.87395     10.62451        -0.454743      0.185818     -0.066082
H     13.33282     15.10445     10.35389        -0.661203     -0.100853      0.163914
H     12.45634     12.45634     19.01126         0.252824      0.263411     -0.229835
H     19.01126     19.01126     19.01126        -0.251933     -0.231457     -0.261699
H     19.01126     12.45634     12.45634        -0.235421      0.272032      0.240835
H     12.45634     19.01126     12.45634         0.224829     -0.264492      0.249958
C     10.35284      5.61067      6.59456        -0.191519     -0.356468     -0.034521
C     10.62556     15.36773      6.59456         0.071024      0.370211     -1.237585
C     10.62556      5.61067     14.38384        -0.056515     -0.255646      0.804329
C     10.35284     15.36773     14.38384         0.042512      0.889384      0.423744
C      6.59456     10.35284      5.61067        -0.366525     -0.036449     -0.169588
C      6.59456     10.62556     15.36773        -0.826435      0.192829      0.364910
C     14.38384     10.62556      5.61067         0.462924      0.302294     -0.501376
C     14.38384     10.35284     15.36773         0.773763     -0.111602      0.444918
C      5.61067      6.59456     10.35284        -0.315778     -0.655080      0.427680
C     15.36773      6.59456     10.62556         0.169416     -0.516139      0.085337
C      5.61067     14.38384     10.62556        -0.145447      0.384847     -0.022440
C     15.36773     14.38384     10.35284         0.398645     -0.035515     -0.097664
C      5.61067     10.35284      6.59456        -0.259112     -0.021374     -0.783034
C     15.36773     10.62556      6.59456         0.607193     -0.265764     -1.347590
C      5.61067     10.62556     14.38384        -0.338774     -0.001306      0.434455
C     15.36773     10.35284     14.38384         0.487030     -0.163915      1.119517
C     10.35284      6.59456      5.61067        -0.160763     -0.497978     -0.425868
C     10.62556      6.59456     15.36773         0.058508     -0.658791      0.273099
C     10.62556     14.38384      5.61067         0.100175      0.996338     -0.497724
C     10.35284     14.38384     15.36773         0.255693      0.604203      0.534665
C      6.59456      5.61067     10.35284        -0.099763     -0.817527      0.075977
C      6.59456     15.36773     10.62556        -1.530411      0.415137      0.109506
C     14.38384      5.61067     10.62556         0.641891     -0.277283     -0.018192
C     14.38384     15.36773     10.35284        -0.426925      0.677301     -0.310001
C     10.40319      3.19606      7.29314         0.006951      0.830067     -0.290645
C     10.35913      4.25547      6.23373        -0.057497     -0.463922      0.500705
C      0.08601      7.29314      7.29314        -0.007038     -0.255951     -0.512795
C      0.13007      6.23373      6.23373         0.033399      0.152031      0.214355
C      0.08601      3.19606      3.19606        -0.011612      0.625042      0.195809
C      0.13007      4.25547      4.25547        -0.093847     -0.179202     -0.195896
C     10.40319      7.29314      3.19606        -0.008144     -0.640307      0.564157
C     10.35913      6.23373      4.25547        -0.048126      0.264916     -0.611510
C      7.29314     10.40319      3.19606        -0.317879      0.026005      0.943726
C      6.23373     10.35913      4.25547         0.168248      0.028989     -0.126220
C      7.29314      0.08601      7.29314        -0.303530     -0.037885     -0.299567
C      6.23373      0.13007      6.23373         0.327743     -0.050680      0.319953
C      3.19606      0.08601      3.19606         0.521593     -0.033459      0.716591
C      4.25547      0.13007      4.25547        -0.091562     -0.030833     -0.371812
C      3.19606     10.40319      7.29314         0.726926      0.000742     -0.402179
C      4.25547     10.35913      6.23373        -0.153995      0.027418      0.080378
C      3.19606      7.29314     10.40319         0.681609     -1.280513     -0.009624
C      4.25547      6.23373     10.35913        -0.657008      0.918515      0.083552
C      7.29314      7.29314      0.08601        -0.686117     -0.180764     -0.019173
C      6.23373      6.23373      0.13007         0.217952      0.206161      0.018127
C      3.19606      3.19606      0.08601         0.267524      0.293261     -0.020961
C      4.25547      4.25547      0.13007        -0.073224     -0.038471     -0.002505
C      7.29314      3.19606     10.40319        -0.361963      1.017887      0.017163
C      6.23373      4.25547     10.35913         1.062356     -0.031452      0.014674
O     10.43466      3.58206      8.50569        -0.043919      0.050059      0.384077
O     10.54374     17.39634      8.50569        -0.041290     -0.174047      0.587971
O     10.54374      3.58206     12.47271         0.049984      0.068463     -0.317991
O     10.43466     17.39634     12.47271        -0.008627     -0.141811     -0.632425
O      8.50569     10.43466      3.58206         0.345935     -0.030434     -0.032779
O      8.50569     10.54374     17.39634         0.468643      0.044526     -0.144519
O     12.47271     10.54374      3.58206        -0.474089      0.012546      0.079570
O     12.47271     10.43466     17.39634        -0.813607      0.003444     -0.196552
O      3.58206      8.50569     10.43466         0.106989      1.036578      0.016802
O     17.39634      8.50569     10.54374        -0.031080      0.308430      0.074326
O      3.58206     12.47271     10.54374         0.072887     -0.461499      0.051892
O     17.39634     12.47271     10.43466        -0.177526     -0.902634      0.059050
O      3.58206     10.43466      8.50569        -0.066829     -0.069286      0.320526
O     17.39634     10.54374      8.50569        -0.131751      0.041532      0.462653
O      3.58206     10.54374     12.47271         0.092826     -0.025620     -0.647778
O     17.39634     10.43466     12.47271        -0.183635      0.056032     -0.789892
O     10.43466      8.50569      3.58206         0.027052      0.638113      0.155512
O     10.54374      8.50569     17.39634         0.061154      0.437693     -0.082853
O     10.54374     12.47271      3.58206        -0.008751     -0.717297      0.226661
O     10.43466     12.47271     17.39634         0.034074     -0.839252     -0.238453
O      8.50569      3.58206     10.43466         0.437453      0.018387     -0.040958
O      8.50569     17.39634     10.54374         0.693657     -0.265092     -0.063935
O     12.47271      3.58206     10.54374        -0.462231      0.152898      0.042117
O     12.47271     17.39634     10.43466        -0.561933     -0.026089     -0.005776
O     11.90042     11.90042     19.56718        -0.295037     -0.313404      0.256581
O     19.56718     19.56718     19.56718         0.283043      0.261809      0.311576
O     19.56718     11.90042     11.90042         0.259567     -0.321995     -0.245495
O     11.90042     19.56718     11.90042        -0.272032      0.277024     -0.265636
O      9.45224      1.03696      9.45224        -0.083234      0.042011     -0.070119
O      1.03696      9.45224      9.45224         0.013488     -0.170900     -0.097009
O      1.03696      1.03696      1.03696         0.002348      0.068916      0.179289
O      9.45224      9.45224      1.03696        -0.062342     -0.102615      0.106586
Zr     10.48920      2.52580     10.48920         0.003296     -0.096870     -0.049038
Zr     10.48920     18.45260     10.48920         0.131832      0.359612     -0.002894
Zr     10.48920     10.48920      2.52580         0.009769     -0.026194     -0.382298
Zr     10.48920     10.48920     18.45260        -0.155569     -0.057624      0.367549
Zr      2.52580     10.48920     10.48920        -0.328837      0.241216     -0.135643
Zr     18.45260     10.48920     10.48920         0.278420     -0.017733     -0.281652
Pd      9.00963     10.13742     13.30509        -0.056110     -0.017089      0.033944
Pd     10.69541      9.71696     10.88502        -0.015816     -0.015530     -0.117665
Pd     13.73621      8.38492     12.57068        -0.005498      0.028010      0.023025
Pd     11.02041     10.92016     14.96419        -0.032848     -0.025718      0.004926
Pd     12.89839     11.00917     12.94011         0.039058      0.040041      0.056666
Pd     15.10832     11.11011     11.31395        -0.021763     -0.029689     -0.003362
Pd      6.60084      7.70123     12.31328        -0.006560      0.021584      0.017416
Pd      9.31801      7.29591      9.87621        -0.005409      0.003330     -0.018918
Pd      9.22602      7.47953     12.63623         0.003752     -0.015806     -0.009804
Pd     11.63482      7.15644     11.42607         0.003703      0.002103     -0.016780
Pd     11.69486      8.01214      8.92198         0.008591     -0.043490     -0.042713
Pd      7.38366     11.78126     11.78385        -0.020604     -0.012500     -0.020395
Pd      9.19448     14.76753      9.43649        -0.000288     -0.026195      0.004203
Pd      8.41209     12.55719     14.25361        -0.018437     -0.005622      0.003755
Pd     14.09040     14.25447      8.31309         0.006659     -0.003271      0.002079
Pd     11.49377     13.65560      8.71728         0.018780     -0.019169      0.032365
Pd     14.16835     11.69566      8.88665        -0.023550     -0.009267      0.019733
Pd      8.72106     14.04132     12.06491         0.000314     -0.012140      0.006990
Pd     12.27988     13.48970     14.14471        -0.007872      0.032743     -0.010842
Pd     11.34025     14.44161     11.43610         0.010487     -0.030142      0.004220
Pd     14.08243     13.60429     12.27461        -0.005307     -0.013928     -0.011632
Pd     12.43070     12.18815     10.71755        -0.017840     -0.063592      0.012972
Pd     12.75229     12.51978      6.68062        -0.001438      0.009887     -0.003522
Pd     13.93053      9.00452      8.00462         0.006447     -0.006319     -0.024328
Pd      6.93977      8.50228      8.76596         0.001045      0.000179     -0.004786
Pd      5.62508     10.10695     10.73117         0.017326     -0.000197     -0.051598
Pd      9.39723      9.47640      8.13364        -0.007071     -0.031458     -0.053750
Pd      8.57818      7.04269      7.24528        -0.020014     -0.032454     -0.018569
Pd      9.76386     12.14110     10.34241         0.028223     -0.035976      0.091817
Pd     11.63985     10.81935      8.50082         0.004000     -0.006990     -0.006060
Pd     11.57938      9.09839      6.48128         0.009146     -0.002519     -0.024809
Pd     10.08296     11.35191      6.33695         0.014983     -0.017583     -0.085465
Ir     11.30612      8.98469     13.24310        -0.033279      0.055691     -0.048367
Ir     13.22178      9.63089     10.39548        -0.001482     -0.017300     -0.031827
Ir     10.55928     12.23586     12.72690        -0.013965     -0.029921      0.004967
Ir      7.59355     11.01127      9.25615        -0.026603     -0.081133      0.045109
Ir      8.82807     12.61832      8.07566         0.075049      0.051369     -0.036204
Ir      8.19696      9.31214     11.00798        -0.025041      0.011627     -0.031218
