10
# total energy = -69.72761385 eVH      2.08791      1.01920      7.50000         0.036515      0.017824      0.000000
H      3.19552      1.55987      7.50000        -0.036515     -0.017824      0.000000
C      4.14522      2.02346      7.50000        -0.279985     -0.136673     -0.000000
C      1.13821      0.55561      7.50000         0.279985      0.136673     -0.000000
N      0.10727      1.38377      7.50000        -0.429562      0.191302      0.000000
N      5.17617      1.19530      7.50000         0.429562     -0.191302      0.000000
N      1.15697     -0.76664      7.50000        -0.113415     -0.456352      0.000000
N      4.12646      3.34571      7.50000         0.113415      0.456352      0.000000
Ir      2.64172     -2.06111      7.50000        -0.000000      0.000000      0.000000
Ir     -0.00000      3.35065      7.50000        -0.000000      0.000000      0.000000
