152
# total energy = -1005.16868289 eVH     10.35389      5.87395      7.64558         0.188838      0.091234      0.586569
H     10.62451     15.10445      7.64558        -0.113239     -0.148050      0.481150
H     10.62451      5.87395     13.33282         0.531658      0.067047     -0.856242
H     10.35389     15.10445     13.33282         0.016255     -0.154081     -0.398564
H      7.64558     10.35389      5.87395         0.345271      0.036754      0.165516
H      7.64558     10.62451     15.10445         0.960645      0.575210      0.038968
H     13.33282     10.62451      5.87395        -0.487633      0.339311      0.059356
H     13.33282     10.35389     15.10445        -0.863558     -0.099580      0.002412
H      5.87395      7.64558     10.35389         0.313667      1.292813      0.038959
H     15.10445      7.64558     10.62451        -0.101371      0.512716      0.358461
H      5.87395     13.33282     10.62451         0.166558     -0.570312      0.051055
H     15.10445     13.33282     10.35389        -0.075981     -0.946888     -0.210296
H      5.87395     10.35389      7.64558         0.224638      0.050885      0.443855
H     15.10445     10.62451      7.64558        -0.138957      0.556204      0.758349
H      5.87395     10.62451     13.33282        -0.041706      0.496162     -1.146543
H     15.10445     10.35389     13.33282        -0.089817     -0.044295     -0.621384
H     10.35389      7.64558      5.87395         0.355761      1.161074      0.051100
H     10.62451      7.64558     15.10445         0.624329      0.703080     -0.201837
H     10.62451     13.33282      5.87395        -0.382569     -0.815686      0.297309
H     10.35389     13.33282     15.10445        -0.125641     -0.472269     -0.302329
H      7.64558      5.87395     10.35389         0.741916      0.067012     -0.206256
H      7.64558     15.10445     10.62451         0.807903     -0.169578      0.012008
H     13.33282      5.87395     10.62451        -0.708559      0.152192      0.567968
H     13.33282     15.10445     10.35389        -0.402377     -0.114330     -0.108498
H     12.45634     12.45634     19.01126         0.249460      0.275697     -0.229026
H     19.01126     19.01126     19.01126        -0.280800     -0.255887     -0.230368
H     19.01126     12.45634     12.45634        -0.280401      0.262694      0.215610
H     12.45634     19.01126     12.45634         0.238842     -0.259355      0.272733
C     10.35284      5.61067      6.59456        -0.263259     -0.793007     -0.178864
C     10.62556     15.36773      6.59456         0.045518      0.283443     -0.259911
C     10.62556      5.61067     14.38384        -0.128705     -0.489017      0.397398
C     10.35284     15.36773     14.38384         0.025161      0.188103      0.342223
C      6.59456     10.35284      5.61067        -0.373799      0.009972     -0.210001
C      6.59456     10.62556     15.36773        -0.852888      0.127535      0.668194
C     14.38384     10.62556      5.61067        -0.094769     -0.446233     -0.753775
C     14.38384     10.35284     15.36773         1.071604     -0.083960      0.147266
C      5.61067      6.59456     10.35284        -0.735819     -0.306416     -0.241900
C     15.36773      6.59456     10.62556         0.530212      0.084605     -0.399823
C      5.61067     14.38384     10.62556        -0.185621      0.538544      0.003647
C     15.36773     14.38384     10.35284         0.266863      0.924889      0.026076
C      5.61067     10.35284      6.59456        -0.307706      0.020497     -0.820381
C     15.36773     10.62556      6.59456         0.527672     -0.232160      0.238368
C      5.61067     10.62556     14.38384        -0.740880      0.019576      0.801780
C     15.36773     10.35284     14.38384         0.450515     -0.049369      1.004694
C     10.35284      6.59456      5.61067        -0.133575     -0.846433     -0.595303
C     10.62556      6.59456     15.36773        -0.000365     -0.510413      0.532251
C     10.62556     14.38384      5.61067         0.194189      1.210748     -0.323529
C     10.35284     14.38384     15.36773        -0.009154      0.904966      0.406898
C      6.59456      5.61067     10.35284         0.307758     -1.061091      0.330923
C      6.59456     15.36773     10.62556        -0.949246      0.223596      0.098592
C     14.38384      5.61067     10.62556         0.286326     -0.630410     -0.346348
C     14.38384     15.36773     10.35284         0.168864      0.362014     -0.071315
C     10.40319      3.19606      7.29314         0.003883      0.939193     -0.415149
C     10.35913      4.25547      6.23373         0.067182     -0.535136      0.127035
C      0.08601      7.29314      7.29314        -0.040659     -0.948185     -0.194342
C      0.13007      6.23373      6.23373        -0.071231      0.224390      0.407875
C      0.08601      3.19606      3.19606         0.023141      1.441732      0.236891
C      0.13007      4.25547      4.25547        -0.012048     -0.551254     -0.297136
C     10.40319      7.29314      3.19606        -0.005101     -0.324115      0.252805
C     10.35913      6.23373      4.25547         0.030746      0.019206     -0.728190
C      7.29314     10.40319      3.19606        -0.277616      0.019035      0.530059
C      6.23373     10.35913      4.25547         0.125898      0.043953     -0.060538
C      7.29314      0.08601      7.29314        -1.002015     -0.082476     -0.277383
C      6.23373      0.13007      6.23373         0.856345     -0.206126      0.418539
C      3.19606      0.08601      3.19606         0.835366     -0.038711      0.535102
C      4.25547      0.13007      4.25547        -0.547468     -0.110584     -0.660629
C      3.19606     10.40319      7.29314         0.591374     -0.011715     -0.777182
C      4.25547     10.35913      6.23373        -0.253714      0.070280      0.226909
C      3.19606      7.29314     10.40319         0.321373     -1.272993      0.018258
C      4.25547      6.23373     10.35913        -1.093534      0.044761      0.128858
C      7.29314      7.29314      0.08601        -0.451275     -0.433495     -0.019818
C      6.23373      6.23373      0.13007         0.626061      0.221173      0.020751
C      3.19606      3.19606      0.08601         0.466595      0.332471     -0.040361
C      4.25547      4.25547      0.13007        -0.135550     -0.593179     -0.047894
C      7.29314      3.19606     10.40319        -0.411911      0.479130      0.056120
C      6.23373      4.25547     10.35913         0.257605     -0.761778      0.151512
O     10.43466      3.58206      8.50569        -0.026647      0.026948      0.404560
O     10.54374     17.39634      8.50569         0.072820     -0.045802      0.281292
O     10.54374      3.58206     12.47271         0.028134     -0.129377     -0.116521
O     10.43466     17.39634     12.47271        -0.025235     -0.168626     -0.512254
O      8.50569     10.43466      3.58206         0.277381     -0.021777      0.008828
O      8.50569     10.54374     17.39634         0.864761     -0.062495     -0.173212
O     12.47271     10.54374      3.58206        -0.739441      0.084508      0.064727
O     12.47271     10.43466     17.39634        -0.485684      0.040086     -0.065094
O      3.58206      8.50569     10.43466         0.175507      1.077429     -0.054251
O     17.39634      8.50569     10.54374        -0.154800      0.602787      0.063550
O      3.58206     12.47271     10.54374         0.094454     -0.442499      0.029539
O     17.39634     12.47271     10.43466        -0.145242     -0.584279     -0.030990
O      3.58206     10.43466      8.50569         0.065588     -0.095906      0.614814
O     17.39634     10.54374      8.50569         0.006410      0.101321      0.369236
O      3.58206     10.54374     12.47271         0.041587      0.037410     -0.505908
O     17.39634     10.43466     12.47271        -0.231997     -0.042383     -0.648239
O     10.43466      8.50569      3.58206        -0.042311      0.438145      0.139922
O     10.54374      8.50569     17.39634        -0.080774      0.749379     -0.226672
O     10.54374     12.47271      3.58206         0.018491     -0.973152      0.103689
O     10.43466     12.47271     17.39634         0.073525     -0.848924     -0.233412
O      8.50569      3.58206     10.43466         0.595373      0.147949     -0.056443
O      8.50569     17.39634     10.54374         0.550224     -0.177921     -0.000926
O     12.47271      3.58206     10.54374        -0.620119      0.194151      0.003422
O     12.47271     17.39634     10.43466        -0.281692      0.060158     -0.044329
O     11.90042     11.90042     19.56718        -0.270706     -0.315242      0.213994
O     19.56718     19.56718     19.56718         0.327737      0.298605      0.223418
O     19.56718     11.90042     11.90042         0.317179     -0.259358     -0.234796
O     11.90042     19.56718     11.90042        -0.247924      0.300112     -0.338440
O      9.45224      1.03696      9.45224         0.000805      0.061401     -0.151927
O      1.03696      9.45224      9.45224         0.077311     -0.068569     -0.191856
O      1.03696      1.03696      1.03696         0.108991      0.172010      0.014740
O      9.45224      9.45224      1.03696        -0.102057     -0.114952     -0.002281
Zr     10.48920      2.52580     10.48920        -0.081438     -0.202835     -0.007099
Zr     10.48920     18.45260     10.48920        -0.098169      0.174271      0.223807
Zr     10.48920     10.48920      2.52580        -0.053715     -0.460436     -0.171657
Zr     10.48920     10.48920     18.45260        -0.105365      0.053745      0.494527
Zr      2.52580     10.48920     10.48920        -0.319823      0.286921      0.356009
Zr     18.45260     10.48920     10.48920         0.157752      0.002988     -0.068104
Pd     13.65126      8.95051      9.13797        -0.058901      0.011371     -0.006445
Pd      5.72020      9.72360      9.90731         0.043254      0.031115      0.020210
Pd      6.93611     11.22537     11.75521        -0.085259      0.059116     -0.022382
Pd     12.17963     13.08984      7.34433        -0.013092      0.013511      0.047400
Pd     12.16857      7.82086      7.14569        -0.005407      0.026571     -0.063179
Pd      8.28905      7.09087      6.53630         0.018334     -0.023710     -0.034042
Pd     10.80796     11.30966      5.57220         0.041934      0.030277     -0.011814
Pd     14.70903      8.53010      6.69753        -0.102279      0.014345      0.060332
Pd      9.72409     11.74439      8.07660        -0.080963      0.024647      0.036668
Pd      6.66457      6.80340     12.31567         0.048196      0.008495      0.021722
Pd      6.45689      7.50917      8.32942        -0.067784     -0.010583     -0.007582
Pd      7.05779      8.95936     13.80404        -0.019624     -0.068414     -0.027292
Pd     11.73063      6.57050      9.45747         0.048053     -0.085149     -0.075962
Pd      9.82376      9.26629      6.87490        -0.022141     -0.014749     -0.017967
Pd      9.04360     13.91801      9.46022         0.063581      0.019853     -0.045258
Pd     10.12994      7.08792     11.44081        -0.036436     -0.019266      0.076892
Pd     10.60333      8.97724      9.46720         0.055962      0.163968      0.072869
Pd      9.40234     11.22633     10.68413        -0.016661     -0.029566     -0.110545
Pd      8.99419      6.95047      9.07176        -0.097549     -0.005619      0.046141
Pd      8.87157      7.06982     13.74541        -0.099767     -0.015579     -0.017851
Pd      8.10682      8.82361     11.31956         0.016139      0.001977      0.019677
Pd     12.06618     10.47631      7.70989        -0.023169      0.018624      0.159657
Pd      7.19740     12.00742      9.22007        -0.000891      0.000859     -0.044158
Pd      8.08074      9.55763      8.75152        -0.070447      0.039913      0.055808
Pd     14.28573      6.51080      8.46549        -0.063897     -0.000792     -0.018629
Pd     12.56539      8.30492     11.50191         0.017804      0.042857      0.020215
Pd      8.86294     11.36490     13.50955        -0.033315      0.090833     -0.036892
Pd     13.87800     11.91206      9.07327         0.032342      0.007472     -0.061504
Pd     12.84186     10.65868     13.11527         0.037168     -0.042167      0.048195
Pd     14.68232     10.33480     11.17597        -0.006583      0.004752     -0.007163
Pd     12.03230     10.75399     10.63661        -0.061075     -0.182081     -0.145956
Pd     11.48355     13.16119      9.89130        -0.117775      0.068424     -0.060397
Pd     13.53541     12.88876     11.67900         0.084189     -0.039963      0.041491
Pd     11.01134     12.59734     12.47358        -0.004958      0.014832      0.021186
Pd     11.13083     11.40685     14.93833        -0.041842     -0.021028     -0.050438
Pd     10.45843      9.47369     12.65629         0.097400      0.003240     -0.043495
Pd      9.43606      9.36845     15.14796         0.057095     -0.038646      0.032045
Pd      8.54600     13.48765     12.00507         0.051997     -0.000865      0.073493
