152
# total energy = -1005.96609861 eVH     10.35389      5.87395      7.64558         0.239774      0.040724      0.632160
H     10.62451     15.10445      7.64558        -0.108545     -0.145763      0.533259
H     10.62451      5.87395     13.33282         0.491346      0.121314     -0.591669
H     10.35389     15.10445     13.33282         0.067065     -0.185054     -0.538539
H      7.64558     10.35389      5.87395         0.368052      0.034282      0.173542
H      7.64558     10.62451     15.10445         0.686677      0.466783     -0.043662
H     13.33282     10.62451      5.87395        -0.527153      0.411486      0.074256
H     13.33282     10.35389     15.10445        -0.793026     -0.089097     -0.004194
H      5.87395      7.64558     10.35389         0.261880      0.883202     -0.193711
H     15.10445      7.64558     10.62451        -0.097132      0.484653      0.282133
H      5.87395     13.33282     10.62451         0.154570     -0.696926     -0.165748
H     15.10445     13.33282     10.35389        -0.003161     -1.049806     -0.327462
H      5.87395     10.35389      7.64558         0.244292      0.087780      0.549984
H     15.10445     10.62451      7.64558        -0.114600      0.411847      0.777248
H      5.87395     10.62451     13.33282         0.144016      0.342834     -0.690060
H     15.10445     10.35389     13.33282        -0.037911     -0.070110     -0.704086
H     10.35389      7.64558      5.87395         0.346757      1.065033     -0.003127
H     10.62451      7.64558     15.10445         0.533765      0.534590     -0.117455
H     10.62451     13.33282      5.87395        -0.401000     -0.833209      0.194411
H     10.35389     13.33282     15.10445        -0.041175     -0.432007     -0.217850
H      7.64558      5.87395     10.35389         0.852967      0.080932     -0.279332
H      7.64558     15.10445     10.62451         0.824426     -0.203453     -0.005338
H     13.33282      5.87395     10.62451        -0.786996      0.186833      0.594251
H     13.33282     15.10445     10.35389        -0.440088     -0.105312     -0.135199
H     12.45634     12.45634     19.01126         0.235873      0.270641     -0.239672
H     19.01126     19.01126     19.01126        -0.261567     -0.240872     -0.261889
H     19.01126     12.45634     12.45634        -0.267268      0.267815      0.220152
H     12.45634     19.01126     12.45634         0.233019     -0.257868      0.275040
C     10.35284      5.61067      6.59456        -0.424666     -0.676216      0.109536
C     10.62556     15.36773      6.59456         0.067547      0.362389     -0.311870
C     10.62556      5.61067     14.38384        -0.328471     -0.383110     -0.285615
C     10.35284     15.36773     14.38384        -0.005468      0.333053      0.529876
C      6.59456     10.35284      5.61067        -0.318733     -0.005516     -0.292944
C      6.59456     10.62556     15.36773        -0.239195     -0.217035      0.783926
C     14.38384     10.62556      5.61067        -0.221398     -0.395731     -0.530002
C     14.38384     10.35284     15.36773         0.965261     -0.068052      0.252809
C      5.61067      6.59456     10.35284        -0.537353     -0.024668     -0.063909
C     15.36773      6.59456     10.62556         0.543554      0.009192     -0.249371
C      5.61067     14.38384     10.62556        -0.312356      0.980265      0.080149
C     15.36773     14.38384     10.35284         0.287951      1.049255      0.050479
C      5.61067     10.35284      6.59456        -0.201853     -0.138561     -0.611266
C     15.36773     10.62556      6.59456         0.442636     -0.265432      0.114857
C      5.61067     10.62556     14.38384        -0.683563     -0.344973     -0.103291
C     15.36773     10.35284     14.38384         0.382545     -0.063713      1.025076
C     10.35284      6.59456      5.61067        -0.217339     -0.342374     -0.648639
C     10.62556      6.59456     15.36773        -0.267658      0.132379      0.456092
C     10.62556     14.38384      5.61067         0.198793      1.059656     -0.340770
C     10.35284     14.38384     15.36773         0.011722      0.547212      0.430460
C      6.59456      5.61067     10.35284        -0.104364     -0.815971      0.268125
C      6.59456     15.36773     10.62556        -0.997619      0.275594      0.080617
C     14.38384      5.61067     10.62556         0.485350     -0.551524     -0.372050
C     14.38384     15.36773     10.35284         0.218784      0.458765     -0.096145
C     10.40319      3.19606      7.29314         0.015646      0.668982     -0.481405
C     10.35913      4.25547      6.23373         0.089190     -0.701415     -0.009806
C      0.08601      7.29314      7.29314        -0.043991     -0.408402     -0.319606
C      0.13007      6.23373      6.23373        -0.023382      0.094208      0.573152
C      0.08601      3.19606      3.19606        -0.008890      1.292553      0.285339
C      0.13007      4.25547      4.25547         0.051590     -0.781363     -0.162660
C     10.40319      7.29314      3.19606         0.011696     -0.316192      0.315738
C     10.35913      6.23373      4.25547         0.023900      0.009799     -0.813669
C      7.29314     10.40319      3.19606        -0.301601      0.022247      0.560465
C      6.23373     10.35913      4.25547         0.187680      0.062753     -0.079340
C      7.29314      0.08601      7.29314        -0.507870     -0.065895     -0.378195
C      6.23373      0.13007      6.23373         0.676977     -0.059746      0.475477
C      3.19606      0.08601      3.19606         0.763795     -0.031891      0.574601
C      4.25547      0.13007      4.25547        -0.585968     -0.088610     -0.541081
C      3.19606     10.40319      7.29314         0.476453     -0.011096     -0.753416
C      4.25547     10.35913      6.23373        -0.344573      0.065511      0.194380
C      3.19606      7.29314     10.40319         0.298420     -1.286482      0.047626
C      4.25547      6.23373     10.35913        -0.840631      0.109909      0.143755
C      7.29314      7.29314      0.08601        -0.408421     -0.378340     -0.026120
C      6.23373      6.23373      0.13007         0.460124      0.218014     -0.013524
C      3.19606      3.19606      0.08601         0.484075      0.374788     -0.041974
C      4.25547      4.25547      0.13007        -0.157176     -0.647787     -0.036218
C      7.29314      3.19606     10.40319        -0.329564      0.445336      0.075399
C      6.23373      4.25547     10.35913         0.300842     -0.678080      0.148669
O     10.43466      3.58206      8.50569        -0.017546      0.108955      0.505197
O     10.54374     17.39634      8.50569         0.035535     -0.175599      0.491098
O     10.54374      3.58206     12.47271         0.051950     -0.094425     -0.180840
O     10.43466     17.39634     12.47271        -0.039118     -0.184013     -0.534303
O      8.50569     10.43466      3.58206         0.292313     -0.008125      0.021999
O      8.50569     10.54374     17.39634         0.622724      0.036191     -0.143463
O     12.47271     10.54374      3.58206        -0.729169      0.086586      0.094849
O     12.47271     10.43466     17.39634        -0.438475      0.023161     -0.109122
O      3.58206      8.50569     10.43466         0.170674      1.045128     -0.037099
O     17.39634      8.50569     10.54374        -0.160693      0.542973      0.076259
O      3.58206     12.47271     10.54374         0.087149     -0.372916      0.049841
O     17.39634     12.47271     10.43466        -0.156423     -0.545962     -0.022939
O      3.58206     10.43466      8.50569         0.081128     -0.069820      0.587695
O     17.39634     10.54374      8.50569        -0.111878      0.066504      0.528276
O      3.58206     10.54374     12.47271         0.032503      0.044333     -0.515803
O     17.39634     10.43466     12.47271        -0.225399     -0.038705     -0.612616
O     10.43466      8.50569      3.58206        -0.039666      0.446417      0.137875
O     10.54374      8.50569     17.39634         0.051530      0.533531     -0.158588
O     10.54374     12.47271      3.58206         0.008933     -1.029473      0.195858
O     10.43466     12.47271     17.39634         0.039838     -0.716120     -0.173551
O      8.50569      3.58206     10.43466         0.513932      0.146874     -0.055843
O      8.50569     17.39634     10.54374         0.486407     -0.195047      0.014807
O     12.47271      3.58206     10.54374        -0.627401      0.226167      0.010429
O     12.47271     17.39634     10.43466        -0.228451      0.064865     -0.052621
O     11.90042     11.90042     19.56718        -0.239650     -0.290082      0.248083
O     19.56718     19.56718     19.56718         0.310728      0.295283      0.302255
O     19.56718     11.90042     11.90042         0.293619     -0.264029     -0.233125
O     11.90042     19.56718     11.90042        -0.241095      0.291733     -0.326210
O      9.45224      1.03696      9.45224        -0.018148      0.088963     -0.072757
O      1.03696      9.45224      9.45224         0.092790     -0.091477     -0.134169
O      1.03696      1.03696      1.03696         0.093200      0.188343      0.051051
O      9.45224      9.45224      1.03696        -0.107519     -0.106018      0.035392
Zr     10.48920      2.52580     10.48920        -0.127548     -0.285593     -0.037908
Zr     10.48920     18.45260     10.48920        -0.073475      0.214952      0.073461
Zr     10.48920     10.48920      2.52580         0.005309     -0.402587     -0.262164
Zr     10.48920     10.48920     18.45260        -0.279808     -0.092804      0.319590
Zr      2.52580     10.48920     10.48920        -0.383717      0.238046      0.276404
Zr     18.45260     10.48920     10.48920         0.235504     -0.002381     -0.221820
Pd     13.58973      8.94489      9.24756         0.009125      0.011182     -0.007498
Pd      5.63537      9.87587     10.15495        -0.003599      0.000416     -0.003066
Pd      6.78834     11.85769     11.69285        -0.005373     -0.000325      0.006904
Pd     12.07816     13.01885      7.36268        -0.000361     -0.002835     -0.000938
Pd     11.89216      7.73866      7.44972        -0.002253      0.004648      0.003626
Pd      8.31013      6.88407      6.59500        -0.000135     -0.004790     -0.009629
Pd     10.67863     11.17925      5.63482        -0.010112     -0.001553      0.003871
Pd     14.40786      8.55254      6.76250         0.000684     -0.001368     -0.005795
Pd      9.68828     11.73657      8.10098        -0.006568     -0.000697      0.006740
Pd      6.76938      6.80412     12.31502        -0.003587     -0.004098      0.002353
Pd      6.50364      7.95703      8.14135         0.009565      0.041312     -0.035654
Pd      6.53821      8.50212     14.34897        -0.005672     -0.001326      0.001709
Pd     11.50323      6.52371      9.91142        -0.003448     -0.002983      0.004491
Pd      9.54210      9.21428      7.13202        -0.012207     -0.001784      0.005414
Pd      8.98770     13.99038      9.30747        -0.001835     -0.002274      0.008994
Pd      9.49473      7.36955     11.73157        -0.007970     -0.001409     -0.005136
Pd     10.60571      8.99079      9.68083         0.001899     -0.006408      0.001651
Pd      9.33630     11.52977     10.68242        -0.000311      0.002372      0.008879
Pd      8.91258      7.04489      9.15774        -0.007905      0.001835     -0.006621
Pd      8.55217      6.57052     14.24503         0.001991      0.007914     -0.000605
Pd      7.66780      9.33388     11.96515        -0.006379     -0.000948      0.007879
Pd     11.98963     10.38525      7.73492        -0.009464      0.001126      0.003069
Pd      7.13841     12.01848      9.04317        -0.002517     -0.002995      0.009426
Pd      8.11184      9.59956      9.34119         0.004219      0.001691      0.018257
Pd     14.02669      6.47683      8.50955        -0.002617      0.005871      0.002836
Pd     12.58090      8.36652     11.59813         0.007205      0.007171     -0.008576
Pd      8.77119     11.57806     13.39806        -0.002084      0.003506      0.001402
Pd     13.90024     11.94943      8.96025        -0.002676     -0.005419      0.004765
Pd     12.95876     10.68237     13.05189        -0.005994      0.004652      0.005767
Pd     14.79646     10.44462     11.08870        -0.003889     -0.000530      0.009417
Pd     12.08807     10.89148     10.51935        -0.006283     -0.000313      0.005792
Pd     11.44276     13.34277      9.92636         0.000848     -0.002255     -0.001916
Pd     13.60386     12.91947     11.62616        -0.000471     -0.000440      0.002145
Pd     11.12633     12.59905     12.52831        -0.003188      0.006945     -0.000307
Pd     10.95983     11.04979     14.80744        -0.004528      0.010533      0.002478
Pd     10.50929      9.75834     12.37093        -0.000759     -0.007880      0.005481
Pd      9.08773      9.13551     14.40397        -0.004044      0.008166      0.008572
Pd      8.83790     13.84488     11.99953        -0.007179      0.004509      0.007182
