152
# total energy = -1004.28840713 eVH     10.35389      5.87395      7.64558        -0.155974      0.215747      0.655806
H     10.62451     15.10445      7.64558        -0.265443     -0.134219      0.676113
H     10.62451      5.87395     13.33282         0.471049      0.033843     -0.988628
H     10.35389     15.10445     13.33282         0.064683     -0.190060     -0.539899
H      7.64558     10.35389      5.87395         0.412202      0.067204      0.114281
H      7.64558     10.62451     15.10445         0.772170      0.573977     -0.037182
H     13.33282     10.62451      5.87395        -0.449189     -0.018237      0.271676
H     13.33282     10.35389     15.10445        -0.741071     -0.190191      0.015779
H      5.87395      7.64558     10.35389         0.087843      1.912786      0.184613
H     15.10445      7.64558     10.62451        -0.094174      0.508837      0.189066
H      5.87395     13.33282     10.62451         0.211162     -0.699985      0.007900
H     15.10445     13.33282     10.35389         0.227370     -1.468473     -0.365130
H      5.87395     10.35389      7.64558         0.086082      0.063106      0.581699
H     15.10445     10.62451      7.64558        -0.179267      0.903119      1.365663
H      5.87395     10.62451     13.33282        -0.052733      0.447927     -1.298980
H     15.10445     10.35389     13.33282         0.141828     -0.179256     -0.774585
H     10.35389      7.64558      5.87395         0.287650      1.365489      0.157662
H     10.62451      7.64558     15.10445         0.549862      0.805616     -0.078990
H     10.62451     13.33282      5.87395        -0.594466     -0.829391      0.190615
H     10.35389     13.33282     15.10445        -0.166311     -0.534568     -0.309821
H      7.64558      5.87395     10.35389         1.137633     -0.252567     -0.103251
H      7.64558     15.10445     10.62451         0.758529     -0.207639     -0.026918
H     13.33282      5.87395     10.62451        -0.622790      0.117784      0.656938
H     13.33282     15.10445     10.35389        -0.408164     -0.028108     -0.149883
H     12.45634     12.45634     19.01126         0.273869      0.243903     -0.234227
H     19.01126     19.01126     19.01126        -0.266550     -0.272519     -0.214732
H     19.01126     12.45634     12.45634        -0.274508      0.252875      0.232824
H     12.45634     19.01126     12.45634         0.253680     -0.281140      0.229078
C     10.35284      5.61067      6.59456        -0.144303     -0.820696     -0.540850
C     10.62556     15.36773      6.59456         0.088407      0.366486     -0.242885
C     10.62556      5.61067     14.38384        -0.086113     -0.580630      0.683551
C     10.35284     15.36773     14.38384        -0.010736      0.246796      0.535741
C      6.59456     10.35284      5.61067        -0.656291      0.085529     -0.456028
C      6.59456     10.62556     15.36773        -1.010027      0.226230      0.723335
C     14.38384     10.62556      5.61067         0.802698      0.029215     -0.920640
C     14.38384     10.35284     15.36773         0.939017     -0.107465      0.458563
C      5.61067      6.59456     10.35284        -0.879156     -1.074861     -0.451817
C     15.36773      6.59456     10.62556         0.687442      0.066126     -0.258571
C      5.61067     14.38384     10.62556        -0.218842      0.806757      0.006379
C     15.36773     14.38384     10.35284         0.290788      1.433475     -0.023982
C      5.61067     10.35284      6.59456        -0.278193      0.014660     -0.752497
C     15.36773     10.62556      6.59456         0.396859     -0.360296     -0.963586
C      5.61067     10.62556     14.38384        -0.338718     -0.006497      1.105321
C     15.36773     10.35284     14.38384         0.376796     -0.048590      0.877094
C     10.35284      6.59456      5.61067        -0.028751     -1.032830     -0.371954
C     10.62556      6.59456     15.36773         0.063844     -0.701941      0.556564
C     10.62556     14.38384      5.61067         0.125422      0.991566     -0.428514
C     10.35284     14.38384     15.36773        -0.020660      0.865533      0.443004
C      6.59456      5.61067     10.35284        -0.684088     -1.287967      0.116468
C      6.59456     15.36773     10.62556        -0.855941      0.156866      0.100057
C     14.38384      5.61067     10.62556        -0.064951     -0.525393     -0.346794
C     14.38384     15.36773     10.35284         0.122254      0.664849     -0.070351
C     10.40319      3.19606      7.29314         0.007577      0.694139     -0.773480
C     10.35913      4.25547      6.23373         0.010290     -0.542940      0.105903
C      0.08601      7.29314      7.29314        -0.020370     -1.011077     -0.260314
C      0.13007      6.23373      6.23373        -0.047990      0.403568      0.405075
C      0.08601      3.19606      3.19606         0.043536      1.169891      0.217146
C      0.13007      4.25547      4.25547        -0.003730     -0.412636     -0.451140
C     10.40319      7.29314      3.19606        -0.009837     -0.572111      0.215796
C     10.35913      6.23373      4.25547        -0.019348      0.126559     -0.698511
C      7.29314     10.40319      3.19606        -0.399221      0.021554      0.266286
C      6.23373     10.35913      4.25547         0.215484      0.070588     -0.103149
C      7.29314      0.08601      7.29314        -1.165354     -0.079751     -0.365337
C      6.23373      0.13007      6.23373         0.644290     -0.188124      0.354348
C      3.19606      0.08601      3.19606         1.168514     -0.016759      0.295387
C      4.25547      0.13007      4.25547        -0.569571     -0.155684     -0.223374
C      3.19606     10.40319      7.29314         0.548866      0.031614     -0.252842
C      4.25547     10.35913      6.23373        -0.221482      0.078713      0.206744
C      3.19606      7.29314     10.40319         0.305612     -0.571337      0.043023
C      4.25547      6.23373     10.35913        -1.040972      0.026191      0.173185
C      7.29314      7.29314      0.08601        -0.492814     -0.446567     -0.024296
C      6.23373      6.23373      0.13007         0.500004      0.304448      0.040301
C      3.19606      3.19606      0.08601         0.652407      0.443574     -0.025358
C      4.25547      4.25547      0.13007        -0.117422     -0.778054     -0.113926
C      7.29314      3.19606     10.40319        -0.408551      0.469432      0.051176
C      6.23373      4.25547     10.35913         0.605297     -0.730890      0.191910
O     10.43466      3.58206      8.50569         0.057494      0.190009      0.657377
O     10.54374     17.39634      8.50569         0.049096     -0.033865      0.307986
O     10.54374      3.58206     12.47271         0.004444     -0.046489     -0.222795
O     10.43466     17.39634     12.47271        -0.035755     -0.109482     -0.395245
O      8.50569     10.43466      3.58206         0.548623     -0.043438      0.138413
O      8.50569     10.54374     17.39634         0.862570     -0.083938     -0.168948
O     12.47271     10.54374      3.58206        -0.878271      0.139169      0.136009
O     12.47271     10.43466     17.39634        -0.620986      0.034058     -0.178791
O      3.58206      8.50569     10.43466         0.174375      0.671548     -0.027383
O     17.39634      8.50569     10.54374        -0.137118      0.634494      0.021485
O      3.58206     12.47271     10.54374         0.100230     -0.543692      0.056191
O     17.39634     12.47271     10.43466        -0.172424     -0.570925     -0.055016
O      3.58206     10.43466      8.50569         0.087685     -0.040230      0.388306
O     17.39634     10.54374      8.50569         0.053936      0.102000      0.328418
O      3.58206     10.54374     12.47271        -0.020997      0.033631     -0.240150
O     17.39634     10.43466     12.47271        -0.123318     -0.028575     -0.443744
O     10.43466      8.50569      3.58206        -0.037783      0.627966      0.179654
O     10.54374      8.50569     17.39634        -0.092455      0.812683     -0.174342
O     10.54374     12.47271      3.58206         0.114852     -0.947723      0.174306
O     10.43466     12.47271     17.39634         0.027997     -0.540909     -0.087473
O      8.50569      3.58206     10.43466         0.581889      0.152788     -0.052091
O      8.50569     17.39634     10.54374         0.599700     -0.166248      0.014351
O     12.47271      3.58206     10.54374        -0.751075      0.133331      0.008773
O     12.47271     17.39634     10.43466        -0.505885     -0.124638     -0.031457
O     11.90042     11.90042     19.56718        -0.326832     -0.265372      0.243965
O     19.56718     19.56718     19.56718         0.297382      0.325769      0.206254
O     19.56718     11.90042     11.90042         0.346026     -0.277988     -0.252570
O     11.90042     19.56718     11.90042        -0.280136      0.352501     -0.229093
O      9.45224      1.03696      9.45224        -0.028094      0.102465     -0.133597
O      1.03696      9.45224      9.45224         0.059105     -0.019731     -0.120767
O      1.03696      1.03696      1.03696         0.063691      0.100822      0.095774
O      9.45224      9.45224      1.03696        -0.038334     -0.026708      0.087425
Zr     10.48920      2.52580     10.48920        -0.092485     -0.253113      0.166459
Zr     10.48920     18.45260     10.48920         0.024393      0.055589      0.096243
Zr     10.48920     10.48920      2.52580        -0.321668     -0.266881     -0.385705
Zr     10.48920     10.48920     18.45260         0.188095     -0.020639      0.386932
Zr      2.52580     10.48920     10.48920        -0.137261     -0.045335     -0.069468
Zr     18.45260     10.48920     10.48920         0.114293     -0.052190      0.144627
Pd     12.71145      8.30808      9.74623         0.071167     -0.022218      0.004069
Pd      6.69175      9.60524     10.47106         0.046757      0.013851      0.017264
Pd      6.92103     11.77947     11.91019        -0.006945     -0.051366     -0.012868
Pd     12.25152     13.48475      7.24998         0.002578      0.001645      0.004189
Pd     12.07305      7.91463      7.13177         0.011112     -0.017389     -0.000803
Pd      8.52124      7.32616      6.92590        -0.048068      0.016733      0.002364
Pd     11.48544     11.45024      5.67109         0.005907      0.035097     -0.021284
Pd     14.47525      8.87679      7.81441        -0.005927     -0.012746      0.025077
Pd      9.83681     11.79856      7.88960        -0.020639     -0.026670      0.008697
Pd      7.08098      7.18110     11.96561        -0.010567     -0.066278     -0.002231
Pd      6.46407      7.61275      8.50405        -0.002067      0.015483     -0.002192
Pd      7.34218      9.26532     13.44066        -0.032001      0.083248      0.041504
Pd     11.42412      6.07132      9.22387        -0.071122      0.013139     -0.039481
Pd      9.91617      9.56064      6.37251         0.000170      0.013913      0.007842
Pd      9.12654     13.96848      9.33519        -0.010660      0.008830      0.009054
Pd     10.95050      7.20832     11.53831        -0.084114      0.046752     -0.018204
Pd     10.32978      9.07860      9.03511        -0.041575     -0.008763      0.022635
Pd      9.31429     11.50935     10.49558         0.004613      0.002535     -0.006592
Pd      8.92105      7.04197      9.60278         0.020987      0.032753      0.035964
Pd      9.09045      7.29212     13.62348         0.003216     -0.011290      0.016501
Pd      9.07066      9.07318     11.42184        -0.047285      0.041630     -0.073480
Pd     12.28168     10.60626      8.07507         0.065486     -0.001066     -0.004482
Pd      7.10089     12.05535      9.18944        -0.007724      0.001605      0.002872
Pd      8.02880      9.77116      8.22603         0.054820     -0.058754     -0.008902
Pd     14.03801      6.34806      8.50433        -0.005727      0.038246     -0.035321
Pd     13.32111      8.39757     12.26705         0.046913     -0.024476      0.006499
Pd      9.16456     11.33308     13.21524        -0.055093      0.000526      0.003353
Pd     14.04298     12.41622      8.81616        -0.002691     -0.042105      0.023480
Pd     13.17636     10.97190     13.04355        -0.044686      0.025092     -0.033975
Pd     14.33264     10.31870     10.45793         0.002086     -0.008595      0.019686
Pd     11.70930     10.52691     10.84475         0.064104     -0.010281      0.030655
Pd     11.54573     13.00980      9.73605         0.017382      0.026953     -0.003720
Pd     13.68003     12.94173     11.49485         0.002245     -0.014098     -0.026661
Pd     11.21663     12.73553     12.35421        -0.002283     -0.003115     -0.010521
Pd     11.28078     11.51857     14.82494         0.001988     -0.015226      0.022269
Pd     11.04369      9.34602     13.20164         0.006159      0.024290     -0.028866
Pd      9.44251      9.56166     15.28879         0.046022      0.013313      0.002474
Pd      8.82410     13.75755     12.00330         0.003514      0.010968     -0.006827
