152
# total energy = -1003.41809110 eVH     10.35389      5.87395      7.64558        -0.131823      0.202664      0.782752
H     10.62451     15.10445      7.64558        -0.473182     -0.071158      1.088957
H     10.62451      5.87395     13.33282         0.204446     -0.034882     -0.777811
H     10.35389     15.10445     13.33282         0.006701     -0.172400     -0.613763
H      7.64558     10.35389      5.87395         0.566004      0.116719     -0.059064
H      7.64558     10.62451     15.10445         0.751940      0.545976     -0.048361
H     13.33282     10.62451      5.87395        -0.652284      0.028033      0.240620
H     13.33282     10.35389     15.10445        -0.604691     -0.161170     -0.044040
H      5.87395      7.64558     10.35389        -0.011619      1.782138      0.338095
H     15.10445      7.64558     10.62451        -0.027363      0.861927      0.092997
H      5.87395     13.33282     10.62451         0.204319     -0.805290      0.166778
H     15.10445     13.33282     10.35389        -0.001570     -1.111309     -0.097378
H      5.87395     10.35389      7.64558        -0.158860      0.142469      0.909411
H     15.10445     10.62451      7.64558        -0.007522      0.784050      1.412298
H      5.87395     10.62451     13.33282        -0.016840      0.404154     -1.422380
H     15.10445     10.35389     13.33282         0.595875      0.077880     -1.022427
H     10.35389      7.64558      5.87395         0.357918      1.400223     -0.045296
H     10.62451      7.64558     15.10445         0.570681      1.110786     -0.035844
H     10.62451     13.33282      5.87395        -0.667895     -0.744262      0.172165
H     10.35389     13.33282     15.10445        -0.073105     -0.418806     -0.173096
H      7.64558      5.87395     10.35389         1.109927     -0.235430     -0.181983
H      7.64558     15.10445     10.62451         0.719825     -0.208684      0.116006
H     13.33282      5.87395     10.62451        -0.976767      0.032281      0.499643
H     13.33282     15.10445     10.35389        -0.322510     -0.087542     -0.032812
H     12.45634     12.45634     19.01126         0.269340      0.231990     -0.248708
H     19.01126     19.01126     19.01126        -0.268036     -0.259111     -0.226787
H     19.01126     12.45634     12.45634        -0.273777      0.254035      0.233723
H     12.45634     19.01126     12.45634         0.257519     -0.272006      0.230967
C     10.35284      5.61067      6.59456        -0.099312     -0.900697     -0.899237
C     10.62556     15.36773      6.59456         0.214593      0.371804     -0.674564
C     10.62556      5.61067     14.38384        -0.270011     -0.773218      0.804760
C     10.35284     15.36773     14.38384         0.014689      0.237197      0.700230
C      6.59456     10.35284      5.61067        -0.840432      0.100219     -0.576921
C      6.59456     10.62556     15.36773        -0.687011      0.182134      0.791065
C     14.38384     10.62556      5.61067         0.727147      0.060032     -0.784951
C     14.38384     10.35284     15.36773         1.234332      0.038625      0.721757
C      5.61067      6.59456     10.35284        -0.841718     -0.881972     -0.073512
C     15.36773      6.59456     10.62556         0.632426      0.148706     -0.090383
C      5.61067     14.38384     10.62556        -0.424009      0.862014     -0.058844
C     15.36773     14.38384     10.35284         0.413149      1.227262     -0.158633
C      5.61067     10.35284      6.59456        -0.275673     -0.004743     -1.106507
C     15.36773     10.62556      6.59456         0.352349     -0.158070     -1.011615
C      5.61067     10.62556     14.38384        -0.463309     -0.050923      1.109463
C     15.36773     10.35284     14.38384         0.076455     -0.031596      1.410184
C     10.35284      6.59456      5.61067        -0.133884     -1.176347     -0.499609
C     10.62556      6.59456     15.36773        -0.060989     -0.941416      0.740161
C     10.62556     14.38384      5.61067        -0.021575      1.123102     -0.765804
C     10.35284     14.38384     15.36773        -0.033279      0.433191      0.267777
C      6.59456      5.61067     10.35284        -0.812035     -1.308471      0.134845
C      6.59456     15.36773     10.62556        -0.831504      0.454753      0.001276
C     14.38384      5.61067     10.62556         0.251190     -0.735038     -0.027502
C     14.38384     15.36773     10.35284         0.115155      0.509355     -0.024336
C     10.40319      3.19606      7.29314        -0.014465      0.298474     -1.100247
C     10.35913      4.25547      6.23373        -0.022191     -0.441413      0.146368
C      0.08601      7.29314      7.29314        -0.050354     -0.912556     -0.296354
C      0.13007      6.23373      6.23373         0.036513      0.424978      0.616990
C      0.08601      3.19606      3.19606         0.009862      0.982999      0.366045
C      0.13007      4.25547      4.25547         0.036737     -0.537827     -0.410917
C     10.40319      7.29314      3.19606        -0.021687     -0.456060      0.214714
C     10.35913      6.23373      4.25547         0.003192      0.234388     -0.567224
C      7.29314     10.40319      3.19606        -0.299032      0.008204      0.176769
C      6.23373     10.35913      4.25547         0.188651     -0.034139     -0.281075
C      7.29314      0.08601      7.29314        -0.945133     -0.090558     -0.342521
C      6.23373      0.13007      6.23373         0.614231     -0.206568      0.380086
C      3.19606      0.08601      3.19606         0.963777     -0.051599      0.306282
C      4.25547      0.13007      4.25547        -0.550562     -0.183007     -0.434133
C      3.19606     10.40319      7.29314         0.411360      0.008426     -0.189424
C      4.25547     10.35913      6.23373        -0.242578     -0.017695      0.215432
C      3.19606      7.29314     10.40319         0.311291     -0.467935      0.017485
C      4.25547      6.23373     10.35913        -0.969773      0.008826      0.089919
C      7.29314      7.29314      0.08601        -0.452724     -0.349473     -0.035101
C      6.23373      6.23373      0.13007         0.735227      0.121457     -0.002176
C      3.19606      3.19606      0.08601         0.833823      0.385856     -0.024224
C      4.25547      4.25547      0.13007        -0.078098     -0.880300     -0.051680
C      7.29314      3.19606     10.40319        -0.477711      0.424197      0.004649
C      6.23373      4.25547     10.35913         0.372121     -0.802063      0.083113
O     10.43466      3.58206      8.50569         0.103241      0.234126      0.864623
O     10.54374     17.39634      8.50569         0.047023     -0.067120      0.320501
O     10.54374      3.58206     12.47271         0.022788      0.015769     -0.351258
O     10.43466     17.39634     12.47271        -0.039357     -0.137481     -0.398497
O      8.50569     10.43466      3.58206         0.504387     -0.032003      0.177378
O      8.50569     10.54374     17.39634         0.832834     -0.056535     -0.214700
O     12.47271     10.54374      3.58206        -0.827130      0.142199      0.201249
O     12.47271     10.43466     17.39634        -0.509514      0.012367     -0.191733
O      3.58206      8.50569     10.43466         0.186589      0.616269     -0.033895
O     17.39634      8.50569     10.54374        -0.149823      0.530380      0.039328
O      3.58206     12.47271     10.54374         0.081898     -0.456877      0.040478
O     17.39634     12.47271     10.43466        -0.157269     -0.536112     -0.035091
O      3.58206     10.43466      8.50569         0.139792     -0.016507      0.341494
O     17.39634     10.54374      8.50569        -0.011757      0.093710      0.338350
O      3.58206     10.54374     12.47271         0.046087      0.056598     -0.339305
O     17.39634     10.43466     12.47271        -0.148328     -0.031709     -0.359163
O     10.43466      8.50569      3.58206        -0.034735      0.584442      0.196349
O     10.54374      8.50569     17.39634        -0.080053      0.791135     -0.188343
O     10.54374     12.47271      3.58206         0.166762     -0.817811      0.202343
O     10.43466     12.47271     17.39634        -0.037702     -0.264502      0.034370
O      8.50569      3.58206     10.43466         0.643199      0.159765     -0.055342
O      8.50569     17.39634     10.54374         0.587924     -0.200906      0.004831
O     12.47271      3.58206     10.54374        -0.745737      0.089884      0.009694
O     12.47271     17.39634     10.43466        -0.547257     -0.137510     -0.036127
O     11.90042     11.90042     19.56718        -0.308319     -0.234700      0.257581
O     19.56718     19.56718     19.56718         0.307570      0.313858      0.229527
O     19.56718     11.90042     11.90042         0.352118     -0.264322     -0.252091
O     11.90042     19.56718     11.90042        -0.299091      0.357418     -0.244771
O      9.45224      1.03696      9.45224        -0.010546      0.127323     -0.106568
O      1.03696      9.45224      9.45224         0.061214     -0.007598     -0.114680
O      1.03696      1.03696      1.03696         0.045322      0.122932      0.088693
O      9.45224      9.45224      1.03696        -0.031780     -0.013123      0.096533
Zr     10.48920      2.52580     10.48920        -0.202354     -0.373121      0.201245
Zr     10.48920     18.45260     10.48920         0.069563      0.060932      0.096834
Zr     10.48920     10.48920      2.52580        -0.202893     -0.262968     -0.346140
Zr     10.48920     10.48920     18.45260         0.076871      0.011787      0.299529
Zr      2.52580     10.48920     10.48920        -0.116535     -0.173947     -0.001966
Zr     18.45260     10.48920     10.48920         0.062935     -0.042518      0.071358
Pd     12.20231      8.36116     10.14135         0.150006     -0.017467     -0.063891
Pd      7.18268      9.47919     10.61881         0.070956      0.007162     -0.024251
Pd      6.96916     11.72400     12.02907        -0.030809      0.070485     -0.063468
Pd     12.09887     13.71470      7.57517        -0.060994     -0.086064     -0.056054
Pd     11.68165      7.96724      7.55917        -0.016935     -0.032158     -0.170764
Pd      8.76965      7.52571      7.10273         0.009780     -0.007971      0.035260
Pd     11.65786     11.70000      5.83925         0.049961     -0.106955      0.058512
Pd     14.07650      9.04839      7.66263         0.036155     -0.020351     -0.031015
Pd      9.63717     12.00831      7.87102         0.095083     -0.074436     -0.092836
Pd      7.12983      7.03980     12.05492         0.006134      0.000860     -0.006265
Pd      6.77159      7.53780      8.68706         0.058010      0.155327     -0.124343
Pd      7.24412      9.15731     13.53886         0.078501      0.176324     -0.063327
Pd     11.42080      5.80411      9.25049        -0.051394      0.026922      0.041487
Pd     10.03658      9.80591      6.46821        -0.029130     -0.074657     -0.088456
Pd      8.98994     14.12219      9.23518         0.007490     -0.019970      0.049104
Pd     11.14194      6.61359     11.72393        -0.064811      0.066348      0.080054
Pd      9.93352      9.27426      9.21084         0.106740      0.132917     -0.063061
Pd      9.10616     11.45088     10.41722         0.106056      0.001457     -0.013749
Pd      9.14315      6.95646      9.98465        -0.048002      0.110284     -0.118389
Pd      8.86581      7.12761     14.02656        -0.032722     -0.107548     -0.035653
Pd      9.39189      8.83194     11.87720         0.042661      0.011701      0.008829
Pd     12.02181     10.70546      8.29364         0.074958      0.019030      0.118478
Pd      6.94989     12.19322      9.23276        -0.036537     -0.008310     -0.058771
Pd      7.78303      9.93432      8.03744         0.081932      0.014634      0.029167
Pd     13.87987      6.74075      8.74926         0.032557     -0.121690     -0.192021
Pd     13.62832      7.61891     12.24762         0.011596     -0.010278      0.031659
Pd      9.34203     11.24440     13.11852        -0.087408     -0.046910     -0.016798
Pd     13.96293     12.42765      8.76151         0.163242      0.010499     -0.037082
Pd     13.42158     10.26231     12.68527         0.017260     -0.008346      0.013925
Pd     14.09263     10.13239     10.13296         0.048450     -0.030775      0.021110
Pd     11.40682     10.64805     11.25636        -0.036589     -0.020162     -0.061171
Pd     11.30381     13.03135      9.97720         0.113624      0.104002      0.005901
Pd     13.62761     12.51369     11.39390         0.008321      0.007989     -0.020057
Pd     11.44655     13.00117     12.65887        -0.087612     -0.058436     -0.109333
Pd     11.60566     11.17002     14.50873        -0.017061      0.030833      0.051975
Pd     11.46153      8.67521     13.42405        -0.092108      0.125682      0.030021
Pd      9.57159      9.57401     15.14937        -0.070753     -0.067406     -0.034594
Pd      9.00829     13.64192     11.86639        -0.060418      0.008123      0.060708
