152
# total energy = -1004.12915087 eVH     10.35389      5.87395      7.64558        -0.288731      0.273623      0.561597
H     10.62451     15.10445      7.64558        -0.263531     -0.141382      0.716034
H     10.62451      5.87395     13.33282         0.458701      0.050427     -0.942822
H     10.35389     15.10445     13.33282         0.075031     -0.195388     -0.519735
H      7.64558     10.35389      5.87395         0.449988      0.072282      0.096167
H      7.64558     10.62451     15.10445         0.816615      0.628766     -0.015975
H     13.33282     10.62451      5.87395        -0.446300     -0.098816      0.303443
H     13.33282     10.35389     15.10445        -0.666998     -0.144372     -0.050243
H      5.87395      7.64558     10.35389         0.097572      1.784440      0.229243
H     15.10445      7.64558     10.62451        -0.093968      0.489483      0.116929
H      5.87395     13.33282     10.62451         0.211202     -0.756539      0.070008
H     15.10445     13.33282     10.35389         0.244754     -1.435724     -0.344946
H      5.87395     10.35389      7.64558         0.072913      0.077297      0.622443
H     15.10445     10.62451      7.64558        -0.240633      0.761174      1.313507
H      5.87395     10.62451     13.33282        -0.053879      0.467787     -1.325426
H     15.10445     10.35389     13.33282         0.144758     -0.115981     -0.776509
H     10.35389      7.64558      5.87395         0.237900      1.338516      0.210104
H     10.62451      7.64558     15.10445         0.582869      0.872081     -0.080827
H     10.62451     13.33282      5.87395        -0.581368     -0.791296      0.189869
H     10.35389     13.33282     15.10445        -0.117476     -0.528193     -0.289009
H      7.64558      5.87395     10.35389         1.126601     -0.332755     -0.169132
H      7.64558     15.10445     10.62451         0.687875     -0.215011     -0.011634
H     13.33282      5.87395     10.62451        -0.628800      0.112736      0.595350
H     13.33282     15.10445     10.35389        -0.355287     -0.044915     -0.113486
H     12.45634     12.45634     19.01126         0.271808      0.244350     -0.233606
H     19.01126     19.01126     19.01126        -0.266969     -0.274815     -0.212954
H     19.01126     12.45634     12.45634        -0.272031      0.256102      0.232613
H     12.45634     19.01126     12.45634         0.258332     -0.280064      0.226883
C     10.35284      5.61067      6.59456        -0.116799     -0.813785     -0.684357
C     10.62556     15.36773      6.59456         0.104909      0.362545     -0.271759
C     10.62556      5.61067     14.38384        -0.079839     -0.642033      0.613060
C     10.35284     15.36773     14.38384        -0.017450      0.218590      0.523358
C      6.59456     10.35284      5.61067        -0.733319      0.094412     -0.523245
C      6.59456     10.62556     15.36773        -0.993562      0.210752      0.759322
C     14.38384     10.62556      5.61067         0.915969      0.020685     -0.991594
C     14.38384     10.35284     15.36773         0.943264     -0.073821      0.499377
C      5.61067      6.59456     10.35284        -0.815268     -0.941844     -0.459966
C     15.36773      6.59456     10.62556         0.744875      0.012252     -0.197216
C      5.61067     14.38384     10.62556        -0.199995      0.913358     -0.027822
C     15.36773     14.38384     10.35284         0.307503      1.494912     -0.064023
C      5.61067     10.35284      6.59456        -0.321033      0.000058     -0.774188
C     15.36773     10.62556      6.59456         0.404971     -0.417058     -0.847450
C      5.61067     10.62556     14.38384        -0.385963     -0.007914      1.055967
C     15.36773     10.35284     14.38384         0.275441     -0.028739      0.921453
C     10.35284      6.59456      5.61067        -0.039886     -1.044990     -0.294813
C     10.62556      6.59456     15.36773         0.010083     -0.758234      0.598331
C     10.62556     14.38384      5.61067         0.096588      0.946566     -0.453394
C     10.35284     14.38384     15.36773        -0.023493      0.742392      0.351299
C      6.59456      5.61067     10.35284        -0.737670     -1.164475      0.177939
C      6.59456     15.36773     10.62556        -0.740166      0.118563      0.070866
C     14.38384      5.61067     10.62556        -0.049719     -0.481249     -0.408950
C     14.38384     15.36773     10.35284         0.068407      0.619939     -0.072335
C     10.40319      3.19606      7.29314         0.007254      0.594790     -0.813397
C     10.35913      4.25547      6.23373         0.005796     -0.462918      0.128026
C      0.08601      7.29314      7.29314        -0.031031     -1.067932     -0.273197
C      0.13007      6.23373      6.23373        -0.043255      0.403262      0.472465
C      0.08601      3.19606      3.19606         0.037777      1.172317      0.221510
C      0.13007      4.25547      4.25547         0.005178     -0.430659     -0.422602
C     10.40319      7.29314      3.19606        -0.014216     -0.646225      0.198840
C     10.35913      6.23373      4.25547        -0.036931      0.121622     -0.664900
C      7.29314     10.40319      3.19606        -0.451195      0.015249      0.233241
C      6.23373     10.35913      4.25547         0.200641      0.052040     -0.110328
C      7.29314      0.08601      7.29314        -1.248958     -0.078269     -0.407741
C      6.23373      0.13007      6.23373         0.680563     -0.196197      0.373864
C      3.19606      0.08601      3.19606         1.215293     -0.013268      0.264655
C      4.25547      0.13007      4.25547        -0.605427     -0.132248     -0.205122
C      3.19606     10.40319      7.29314         0.542256      0.031550     -0.258858
C      4.25547     10.35913      6.23373        -0.206928      0.061964      0.180709
C      3.19606      7.29314     10.40319         0.284753     -0.539872      0.051083
C      4.25547      6.23373     10.35913        -0.965546     -0.008190      0.156992
C      7.29314      7.29314      0.08601        -0.468952     -0.435300     -0.019450
C      6.23373      6.23373      0.13007         0.426129      0.300843      0.064657
C      3.19606      3.19606      0.08601         0.627249      0.462495     -0.020167
C      4.25547      4.25547      0.13007        -0.147131     -0.793425     -0.105329
C      7.29314      3.19606     10.40319        -0.369673      0.452978      0.052831
C      6.23373      4.25547     10.35913         0.607033     -0.681139      0.195773
O     10.43466      3.58206      8.50569         0.056934      0.225274      0.705973
O     10.54374     17.39634      8.50569         0.052314     -0.023194      0.311129
O     10.54374      3.58206     12.47271         0.003556     -0.045404     -0.241566
O     10.43466     17.39634     12.47271        -0.033305     -0.087949     -0.358000
O      8.50569     10.43466      3.58206         0.589496     -0.049742      0.151719
O      8.50569     10.54374     17.39634         0.877423     -0.079843     -0.136998
O     12.47271     10.54374      3.58206        -0.883483      0.148458      0.131684
O     12.47271     10.43466     17.39634        -0.600393      0.041060     -0.183799
O      3.58206      8.50569     10.43466         0.178415      0.643513     -0.038794
O     17.39634      8.50569     10.54374        -0.140435      0.625136      0.020176
O      3.58206     12.47271     10.54374         0.111643     -0.562402      0.044971
O     17.39634     12.47271     10.43466        -0.177980     -0.564355     -0.056562
O      3.58206     10.43466      8.50569         0.093857     -0.040719      0.384562
O     17.39634     10.54374      8.50569         0.064665      0.102927      0.339569
O      3.58206     10.54374     12.47271        -0.027956      0.025692     -0.229064
O     17.39634     10.43466     12.47271        -0.105811     -0.029006     -0.397204
O     10.43466      8.50569      3.58206        -0.049062      0.667127      0.188619
O     10.54374      8.50569     17.39634        -0.086495      0.818478     -0.142989
O     10.54374     12.47271      3.58206         0.126798     -0.942954      0.177608
O     10.43466     12.47271     17.39634         0.012920     -0.447611     -0.051116
O      8.50569      3.58206     10.43466         0.559408      0.147151     -0.050976
O      8.50569     17.39634     10.54374         0.589424     -0.162884      0.016515
O     12.47271      3.58206     10.54374        -0.732125      0.121286      0.019941
O     12.47271     17.39634     10.43466        -0.507833     -0.129643     -0.028981
O     11.90042     11.90042     19.56718        -0.323164     -0.266477      0.244083
O     19.56718     19.56718     19.56718         0.295641      0.324860      0.206515
O     19.56718     11.90042     11.90042         0.343745     -0.286304     -0.246174
O     11.90042     19.56718     11.90042        -0.286749      0.348233     -0.218435
O      9.45224      1.03696      9.45224        -0.041411      0.104841     -0.121696
O      1.03696      9.45224      9.45224         0.068435     -0.031741     -0.107102
O      1.03696      1.03696      1.03696         0.059457      0.088150      0.108295
O      9.45224      9.45224      1.03696        -0.035142     -0.026667      0.100462
Zr     10.48920      2.52580     10.48920        -0.090420     -0.232624      0.183050
Zr     10.48920     18.45260     10.48920         0.025684      0.058536      0.067174
Zr     10.48920     10.48920      2.52580        -0.294345     -0.204962     -0.413333
Zr     10.48920     10.48920     18.45260         0.189184      0.010107      0.339561
Zr      2.52580     10.48920     10.48920        -0.127865     -0.049765     -0.060617
Zr     18.45260     10.48920     10.48920         0.103018     -0.041419      0.129532
Pd     12.67596      8.20699      9.69848        -0.077420      0.035662     -0.022364
Pd      6.80853      9.62444     10.51004        -0.084338      0.031486     -0.053211
Pd      6.95319     11.80202     11.95485        -0.051269      0.001859     -0.056538
Pd     12.25018     13.50862      7.30383         0.022317     -0.012135     -0.026988
Pd     12.13168      7.93363      7.05895        -0.009767     -0.034791     -0.035369
Pd      8.51658      7.42661      6.95951         0.022162     -0.080566      0.046958
Pd     11.56093     11.48964      5.67226         0.015743     -0.041446     -0.040338
Pd     14.56064      8.79987      7.82101        -0.112388      0.053622     -0.010457
Pd      9.94142     11.77244      7.83645        -0.088024     -0.010522     -0.002147
Pd      7.10252      7.18131     11.98537        -0.042835     -0.014645     -0.009918
Pd      6.42247      7.76632      8.50880         0.081315      0.029028     -0.086309
Pd      7.32548      9.25571     13.51407        -0.005101     -0.055953     -0.081084
Pd     11.32572      6.04365      9.21921        -0.022570      0.037104      0.057975
Pd      9.91308      9.60440      6.23605         0.039160      0.012075      0.050479
Pd      9.12797     13.90796      9.25307         0.022487     -0.083661      0.049349
Pd     10.82443      7.12376     11.54669         0.062076      0.049066     -0.028481
Pd     10.32274      9.04012      8.87026         0.070307      0.035047      0.075226
Pd      9.25887     11.47430     10.40051         0.010867      0.004193      0.070344
Pd      8.82544      7.15758      9.67148         0.071842     -0.031842     -0.065866
Pd      9.01569      7.25283     13.75102         0.064700      0.002188     -0.068245
Pd      9.12300      9.10687     11.51506         0.073179     -0.025212      0.019405
Pd     12.38120     10.56390      8.07249        -0.012836      0.003322      0.059247
Pd      6.96050     12.06624      9.23728         0.055951      0.062122      0.016157
Pd      8.04113      9.90138      8.16960        -0.009356     -0.049910      0.056108
Pd     13.96871      6.27268      8.46173         0.025588      0.028060      0.001956
Pd     13.23136      8.15004     12.22862         0.103768      0.017518     -0.020390
Pd      9.18102     11.29564     13.23069         0.071549     -0.009454      0.007798
Pd     14.11011     12.43254      8.79258        -0.019654      0.010904     -0.027666
Pd     13.17491     10.74647     12.88539         0.007592      0.065612      0.062419
Pd     14.25412     10.24176     10.33055        -0.005712     -0.044891      0.066132
Pd     11.59994     10.31746     10.83674        -0.075726      0.019707      0.040963
Pd     11.56093     12.89179      9.75454        -0.075263      0.060335      0.043601
Pd     13.71557     12.82846     11.47253        -0.038196     -0.023078      0.044191
Pd     11.27495     12.55814     12.32701        -0.052467      0.121189      0.022791
Pd     11.38254     11.47045     14.79337         0.000444     -0.052749     -0.048010
Pd     11.06394      9.19125     13.32290         0.026410      0.012853     -0.059661
Pd      9.47936      9.60424     15.34645        -0.021358      0.021885      0.014987
Pd      8.95333     13.69826     11.94793        -0.030695      0.022686     -0.042080
