152
# total energy = -1022.80918309 eVH     10.35389      5.87395      7.64558         0.469264      0.015446      0.900701
H     10.62451     15.10445      7.64558        -0.022236      0.055453      0.745431
H     10.62451      5.87395     13.33282         0.141290      0.114587     -0.601736
H     10.35389     15.10445     13.33282        -0.234664     -0.083975     -0.539094
H      7.64558     10.35389      5.87395         0.328473     -0.038336      0.188837
H      7.64558     10.62451     15.10445         0.611233     -0.185135     -0.148190
H     13.33282     10.62451      5.87395        -0.859069     -0.347948      0.166556
H     13.33282     10.35389     15.10445        -0.433613     -0.067294     -0.074391
H      5.87395      7.64558     10.35389         0.125349      1.102060     -0.170854
H     15.10445      7.64558     10.62451        -0.172153      0.398101     -0.085094
H      5.87395     13.33282     10.62451         0.141941     -0.404705     -0.073825
H     15.10445     13.33282     10.35389        -0.074346     -0.964302     -0.225877
H      5.87395     10.35389      7.64558         0.124816      0.031666      0.480023
H     15.10445     10.62451      7.64558         0.109245     -0.217267      0.789984
H      5.87395     10.62451     13.33282         0.280289     -0.021301     -0.387219
H     15.10445     10.35389     13.33282        -0.168101      0.022483     -0.612253
H     10.35389      7.64558      5.87395         0.067577      0.882202      0.097073
H     10.62451      7.64558     15.10445         0.025654      0.570137     -0.140241
H     10.62451     13.33282      5.87395         0.075713     -0.595555      0.164658
H     10.35389     13.33282     15.10445        -0.238615     -0.909901     -0.118117
H      7.64558      5.87395     10.35389         0.536074      0.039111     -0.145754
H      7.64558     15.10445     10.62451         0.945777     -0.185486      0.330864
H     13.33282      5.87395     10.62451        -0.436524      0.187258     -0.060123
H     13.33282     15.10445     10.35389        -1.098118     -0.085167      0.306255
H     12.45634     12.45634     19.01126         0.266961      0.256477     -0.225066
H     19.01126     19.01126     19.01126        -0.246763     -0.236032     -0.262052
H     19.01126     12.45634     12.45634        -0.239931      0.271174      0.239952
H     12.45634     19.01126     12.45634         0.208939     -0.284652      0.253289
C     10.35284      5.61067      6.59456        -0.097068     -0.451552     -0.429148
C     10.62556     15.36773      6.59456         0.011717      0.370808     -1.113349
C     10.62556      5.61067     14.38384        -0.028577     -0.226288      0.720253
C     10.35284     15.36773     14.38384         0.182583      0.760175      0.133718
C      6.59456     10.35284      5.61067        -0.407911     -0.043489     -0.180297
C      6.59456     10.62556     15.36773        -0.765774      0.145521      0.342052
C     14.38384     10.62556      5.61067         0.620375      0.300044     -0.349295
C     14.38384     10.35284     15.36773         0.699029     -0.117394      0.422199
C      5.61067      6.59456     10.35284        -0.429896     -0.735618      0.265998
C     15.36773      6.59456     10.62556         0.201586     -0.451122      0.049752
C      5.61067     14.38384     10.62556        -0.276409      0.379879     -0.022402
C     15.36773     14.38384     10.35284         0.402715      0.207196      0.241237
C      5.61067     10.35284      6.59456        -0.315707     -0.019235     -0.901596
C     15.36773     10.62556      6.59456         0.580155     -0.155728     -1.226378
C      5.61067     10.62556     14.38384        -0.466457      0.008550      0.965123
C     15.36773     10.35284     14.38384         0.513945     -0.182080      1.262769
C     10.35284      6.59456      5.61067        -0.023315     -0.994945     -0.679380
C     10.62556      6.59456     15.36773         0.046791     -0.679171      0.297166
C     10.62556     14.38384      5.61067         0.046243      1.264985     -0.719598
C     10.35284     14.38384     15.36773         0.108386      0.643666      0.628455
C      6.59456      5.61067     10.35284        -0.235003     -0.891054      0.137980
C      6.59456     15.36773     10.62556        -1.749506      0.498384      0.018671
C     14.38384      5.61067     10.62556         0.578140     -0.227940     -0.008813
C     14.38384     15.36773     10.35284         0.326697      0.520403     -0.240656
C     10.40319      3.19606      7.29314         0.014428      0.889007     -0.246941
C     10.35913      4.25547      6.23373        -0.058875     -0.354584      0.615232
C      0.08601      7.29314      7.29314        -0.008933     -0.237582     -0.460947
C      0.13007      6.23373      6.23373        -0.007622      0.124070      0.198997
C      0.08601      3.19606      3.19606        -0.017441      0.644011      0.186907
C      0.13007      4.25547      4.25547        -0.089245     -0.200689     -0.166142
C     10.40319      7.29314      3.19606        -0.003642     -0.682972      0.516619
C     10.35913      6.23373      4.25547        -0.014542      0.502205     -0.397925
C      7.29314     10.40319      3.19606        -0.341075      0.022446      0.889399
C      6.23373     10.35913      4.25547         0.212806      0.009232     -0.151133
C      7.29314      0.08601      7.29314        -0.303012     -0.046484     -0.278398
C      6.23373      0.13007      6.23373         0.264529     -0.056042      0.282974
C      3.19606      0.08601      3.19606         0.413422     -0.050812      1.365858
C      4.25547      0.13007      4.25547        -0.124778     -0.020553     -0.462840
C      3.19606     10.40319      7.29314         0.684940      0.014691     -0.266229
C      4.25547     10.35913      6.23373        -0.130564      0.025306      0.099547
C      3.19606      7.29314     10.40319         0.598790     -1.259937      0.028092
C      4.25547      6.23373     10.35913        -0.744857      0.809987      0.042922
C      7.29314      7.29314      0.08601        -0.634418     -0.173784     -0.023137
C      6.23373      6.23373      0.13007         0.166494      0.280435     -0.010260
C      3.19606      3.19606      0.08601         0.238085      0.250214     -0.020495
C      4.25547      4.25547      0.13007        -0.055687     -0.039493      0.015711
C      7.29314      3.19606     10.40319        -0.371541      0.794369      0.020069
C      6.23373      4.25547     10.35913         0.847678     -0.186203      0.019966
O     10.43466      3.58206      8.50569        -0.050176      0.038585      0.322187
O     10.54374     17.39634      8.50569        -0.020766     -0.180296      0.600223
O     10.54374      3.58206     12.47271         0.055044      0.061923     -0.329534
O     10.43466     17.39634     12.47271        -0.024377     -0.126928     -0.578277
O      8.50569     10.43466      3.58206         0.374200     -0.025047     -0.018954
O      8.50569     10.54374     17.39634         0.467401      0.053549     -0.141983
O     12.47271     10.54374      3.58206        -0.261511      0.054050     -0.094886
O     12.47271     10.43466     17.39634        -0.842606      0.020022     -0.223479
O      3.58206      8.50569     10.43466         0.037832      0.901822      0.044041
O     17.39634      8.50569     10.54374        -0.045120      0.347077      0.078292
O      3.58206     12.47271     10.54374         0.065356     -0.417030      0.063370
O     17.39634     12.47271     10.43466        -0.168746     -0.776393      0.017421
O      3.58206     10.43466      8.50569        -0.050058     -0.063049      0.233870
O     17.39634     10.54374      8.50569        -0.137271      0.044385      0.464394
O      3.58206     10.54374     12.47271        -0.050863     -0.049114     -0.907987
O     17.39634     10.43466     12.47271        -0.197876      0.047801     -0.778961
O     10.43466      8.50569      3.58206         0.042891      0.672950      0.191813
O     10.54374      8.50569     17.39634         0.051992      0.437168     -0.081855
O     10.54374     12.47271      3.58206        -0.008566     -0.729497      0.224277
O     10.43466     12.47271     17.39634         0.046209     -0.834769     -0.271242
O      8.50569      3.58206     10.43466         0.489857      0.076684     -0.039564
O      8.50569     17.39634     10.54374         0.636957     -0.243039     -0.055935
O     12.47271      3.58206     10.54374        -0.486118      0.164635      0.040154
O     12.47271     17.39634     10.43466        -0.528605     -0.039042     -0.031707
O     11.90042     11.90042     19.56718        -0.304775     -0.312289      0.267017
O     19.56718     19.56718     19.56718         0.286099      0.274648      0.322051
O     19.56718     11.90042     11.90042         0.277230     -0.331257     -0.244515
O     11.90042     19.56718     11.90042        -0.223829      0.292884     -0.238799
O      9.45224      1.03696      9.45224        -0.074587      0.048877     -0.066144
O      1.03696      9.45224      9.45224         0.059430     -0.138709     -0.054547
O      1.03696      1.03696      1.03696         0.047761      0.030146      0.186891
O      9.45224      9.45224      1.03696        -0.041328     -0.088728      0.125493
Zr     10.48920      2.52580     10.48920        -0.004376     -0.072294     -0.023126
Zr     10.48920     18.45260     10.48920         0.046898      0.291471     -0.082187
Zr     10.48920     10.48920      2.52580        -0.103761      0.015902     -0.364575
Zr     10.48920     10.48920     18.45260        -0.126733     -0.159461      0.317897
Zr      2.52580     10.48920     10.48920        -0.347049      0.318398     -0.492859
Zr     18.45260     10.48920     10.48920         0.249964      0.030527     -0.273088
Pd      9.04744     10.26808     13.31562        -0.002347     -0.019152      0.002718
Pd     10.56338      9.72325     10.99028        -0.000015      0.004256     -0.022857
Pd     13.77362      8.52280     12.71227        -0.001497      0.004096     -0.019834
Pd     11.00545     11.09183     15.00252         0.006015     -0.022550     -0.000859
Pd     12.84298     11.16168     12.97896         0.006934      0.001531      0.006325
Pd     14.99974     10.91925     11.35447         0.003576      0.017685     -0.015592
Pd      6.65173      7.41036     12.34599        -0.001037      0.023939     -0.000446
Pd      9.22472      7.25195     10.14174         0.008709      0.017922     -0.024120
Pd      9.26164      7.61363     12.80978        -0.002154     -0.004089     -0.020393
Pd     11.70192      7.28782     11.48006        -0.005060      0.002173     -0.014397
Pd     11.39046      7.99393      8.87816         0.038286     -0.002512     -0.005699
Pd      7.24953     11.83572     11.96966         0.006165      0.017890      0.007970
Pd      8.84452     14.65659      9.30208         0.038748     -0.009403      0.005361
Pd      8.42942     12.66001     14.31983        -0.007160     -0.007712      0.001368
Pd     13.40225     14.07838      8.62220         0.063655      0.023499     -0.031565
Pd     10.88694     13.28156      8.46603         0.078797      0.029767      0.036115
Pd     14.10755     11.51479      8.94483         0.004378      0.028110     -0.008569
Pd      8.60849     14.11026     12.09683         0.014431     -0.004089      0.005042
Pd     12.24856     13.70369     14.02885        -0.003066     -0.001457      0.011453
Pd     11.11524     14.44551     11.08355         0.021289     -0.016276      0.015614
Pd     14.05215     13.53849     12.16463        -0.015006      0.015472     -0.001350
Pd     12.29167     12.17289     10.64784         0.002652     -0.019418      0.017566
Pd     12.67557     12.31713      6.72929         0.024540      0.037431     -0.000442
Pd     13.66054      8.93438      7.95938         0.046839     -0.008529     -0.003079
Pd      6.86578      8.46344      8.84664         0.010943     -0.000009     -0.018683
Pd      5.51675      9.91822     11.31570        -0.017997      0.004015     -0.043113
Pd      9.13883      9.78730      8.34316         0.023582     -0.023388     -0.004011
Pd      8.86553      7.28901      7.47516        -0.037898     -0.007248     -0.030807
Pd      9.49067     12.07553     10.41985         0.004998      0.018858     -0.026451
Pd     11.55373     10.69103      8.57753         0.014845      0.023443     -0.024767
Pd     11.22598      9.23182      6.45229         0.043528     -0.027663     -0.007694
Pd      9.90382     11.56144      6.38213         0.024166     -0.040404     -0.016355
Ir     11.35364      9.09919     13.37028        -0.014807      0.012874     -0.028737
Ir     13.06047      9.48926     10.42910         0.030673      0.007396     -0.012166
Ir     10.53389     12.37358     12.68610         0.010672     -0.016126      0.012406
Ir      7.08597     10.97643      9.53328         0.070637      0.065615     -0.083162
Ir      8.34362     12.42509      8.17309         0.009910     -0.022200      0.014390
Ir      8.04145      9.28805     11.11538         0.070910     -0.040240      0.017586
