152
# total energy = -1006.00427256 eVH     10.35389      5.87395      7.64558         0.259580      0.033174      0.641420
H     10.62451     15.10445      7.64558        -0.107428     -0.140586      0.511864
H     10.62451      5.87395     13.33282         0.484622      0.121532     -0.583509
H     10.35389     15.10445     13.33282         0.079899     -0.183107     -0.557584
H      7.64558     10.35389      5.87395         0.372541      0.097952      0.161453
H      7.64558     10.62451     15.10445         0.697999      0.470362     -0.039116
H     13.33282     10.62451      5.87395        -0.536236      0.423821      0.072907
H     13.33282     10.35389     15.10445        -0.802477     -0.092398      0.008092
H      5.87395      7.64558     10.35389         0.239209      0.681439     -0.406473
H     15.10445      7.64558     10.62451        -0.095656      0.478368      0.282355
H      5.87395     13.33282     10.62451         0.160165     -0.695559     -0.156747
H     15.10445     13.33282     10.35389        -0.011684     -1.019201     -0.327046
H      5.87395     10.35389      7.64558         0.250888      0.333922      0.770184
H     15.10445     10.62451      7.64558        -0.106814      0.401913      0.757571
H      5.87395     10.62451     13.33282         0.133399      0.326707     -0.690373
H     15.10445     10.35389     13.33282        -0.056579     -0.069159     -0.686319
H     10.35389      7.64558      5.87395         0.395102      1.057053     -0.011590
H     10.62451      7.64558     15.10445         0.536780      0.537660     -0.120757
H     10.62451     13.33282      5.87395        -0.398154     -0.849705      0.185030
H     10.35389     13.33282     15.10445        -0.045216     -0.433105     -0.216104
H      7.64558      5.87395     10.35389         0.848612      0.097257     -0.289111
H      7.64558     15.10445     10.62451         0.837817     -0.196266      0.014572
H     13.33282      5.87395     10.62451        -0.805276      0.198218      0.587478
H     13.33282     15.10445     10.35389        -0.443449     -0.112731     -0.128561
H     12.45634     12.45634     19.01126         0.235228      0.270193     -0.240079
H     19.01126     19.01126     19.01126        -0.262448     -0.240602     -0.261041
H     19.01126     12.45634     12.45634        -0.266935      0.268989      0.218034
H     12.45634     19.01126     12.45634         0.232015     -0.255029      0.279202
C     10.35284      5.61067      6.59456        -0.434089     -0.751117      0.212557
C     10.62556     15.36773      6.59456         0.060407      0.368485     -0.294726
C     10.62556      5.61067     14.38384        -0.333449     -0.358188     -0.307238
C     10.35284     15.36773     14.38384        -0.009519      0.329957      0.545085
C      6.59456     10.35284      5.61067        -0.197354     -0.002227     -0.403640
C      6.59456     10.62556     15.36773        -0.267472     -0.221263      0.809099
C     14.38384     10.62556      5.61067        -0.269661     -0.400753     -0.517887
C     14.38384     10.35284     15.36773         0.977458     -0.053249      0.258275
C      5.61067      6.59456     10.35284        -0.540105      0.007392      0.190025
C     15.36773      6.59456     10.62556         0.524001      0.027906     -0.252312
C      5.61067     14.38384     10.62556        -0.341624      0.970886      0.077118
C     15.36773     14.38384     10.35284         0.318265      1.030810      0.055812
C      5.61067     10.35284      6.59456        -0.177922     -0.331031     -0.629399
C     15.36773     10.62556      6.59456         0.449414     -0.291594      0.120107
C      5.61067     10.62556     14.38384        -0.731958     -0.356447     -0.054125
C     15.36773     10.35284     14.38384         0.386152     -0.059762      1.002952
C     10.35284      6.59456      5.61067        -0.201645     -0.190048     -0.663649
C     10.62556      6.59456     15.36773        -0.267381      0.120477      0.447064
C     10.62556     14.38384      5.61067         0.207086      1.068612     -0.347526
C     10.35284     14.38384     15.36773         0.029440      0.533577      0.433068
C      6.59456      5.61067     10.35284        -0.180611     -0.626336      0.231555
C      6.59456     15.36773     10.62556        -1.025137      0.301003      0.079718
C     14.38384      5.61067     10.62556         0.491179     -0.541304     -0.365381
C     14.38384     15.36773     10.35284         0.216264      0.452426     -0.102622
C     10.40319      3.19606      7.29314         0.006437      0.697381     -0.491850
C     10.35913      4.25547      6.23373         0.086668     -0.736496     -0.015539
C      0.08601      7.29314      7.29314        -0.043970     -0.411416     -0.307989
C      0.13007      6.23373      6.23373        -0.022318      0.081660      0.567585
C      0.08601      3.19606      3.19606        -0.019019      1.245878      0.279244
C      0.13007      4.25547      4.25547         0.048708     -0.777991     -0.151270
C     10.40319      7.29314      3.19606         0.008906     -0.348864      0.361162
C     10.35913      6.23373      4.25547         0.027851      0.016968     -0.911985
C      7.29314     10.40319      3.19606        -0.372827      0.018981      0.562913
C      6.23373     10.35913      4.25547         0.206925      0.045679     -0.135974
C      7.29314      0.08601      7.29314        -0.526163     -0.064044     -0.371567
C      6.23373      0.13007      6.23373         0.679177     -0.045747      0.494362
C      3.19606      0.08601      3.19606         0.655727     -0.038002      0.563735
C      4.25547      0.13007      4.25547        -0.572314     -0.080530     -0.555491
C      3.19606     10.40319      7.29314         0.485477     -0.022403     -0.783871
C      4.25547     10.35913      6.23373        -0.515624      0.026160      0.202695
C      3.19606      7.29314     10.40319         0.282422     -1.246960      0.036890
C      4.25547      6.23373     10.35913        -0.693611      0.098227      0.151753
C      7.29314      7.29314      0.08601        -0.406130     -0.371440     -0.028392
C      6.23373      6.23373      0.13007         0.468137      0.213570     -0.021872
C      3.19606      3.19606      0.08601         0.505096      0.372079     -0.039077
C      4.25547      4.25547      0.13007        -0.148025     -0.652523     -0.034804
C      7.29314      3.19606     10.40319        -0.321578      0.418119      0.074594
C      6.23373      4.25547     10.35913         0.251726     -0.696753      0.135207
O     10.43466      3.58206      8.50569        -0.013626      0.101898      0.511256
O     10.54374     17.39634      8.50569         0.036648     -0.174346      0.481334
O     10.54374      3.58206     12.47271         0.058414     -0.081873     -0.189123
O     10.43466     17.39634     12.47271        -0.038247     -0.182743     -0.570480
O      8.50569     10.43466      3.58206         0.346425      0.006885      0.039215
O      8.50569     10.54374     17.39634         0.632932      0.033170     -0.145520
O     12.47271     10.54374      3.58206        -0.666191      0.082032      0.090235
O     12.47271     10.43466     17.39634        -0.439923      0.027535     -0.111484
O      3.58206      8.50569     10.43466         0.183473      1.028004     -0.050558
O     17.39634      8.50569     10.54374        -0.163441      0.540202      0.076377
O      3.58206     12.47271     10.54374         0.082668     -0.361271      0.048875
O     17.39634     12.47271     10.43466        -0.157767     -0.545127     -0.022666
O      3.58206     10.43466      8.50569         0.075921     -0.061243      0.595567
O     17.39634     10.54374      8.50569        -0.111054      0.065608      0.521454
O      3.58206     10.54374     12.47271         0.061013      0.052892     -0.538099
O     17.39634     10.43466     12.47271        -0.214380     -0.040599     -0.586836
O     10.43466      8.50569      3.58206        -0.038836      0.476166      0.133708
O     10.54374      8.50569     17.39634         0.047881      0.530079     -0.161314
O     10.54374     12.47271      3.58206        -0.005182     -1.000265      0.207956
O     10.43466     12.47271     17.39634         0.041970     -0.736329     -0.173674
O      8.50569      3.58206     10.43466         0.506326      0.147050     -0.053599
O      8.50569     17.39634     10.54374         0.485218     -0.197655      0.013712
O     12.47271      3.58206     10.54374        -0.644621      0.236781      0.007973
O     12.47271     17.39634     10.43466        -0.212979      0.067680     -0.056423
O     11.90042     11.90042     19.56718        -0.239488     -0.288810      0.247718
O     19.56718     19.56718     19.56718         0.309933      0.295165      0.299900
O     19.56718     11.90042     11.90042         0.289876     -0.264986     -0.233177
O     11.90042     19.56718     11.90042        -0.243009      0.290999     -0.337754
O      9.45224      1.03696      9.45224        -0.020724      0.086071     -0.072595
O      1.03696      9.45224      9.45224         0.091094     -0.090427     -0.139077
O      1.03696      1.03696      1.03696         0.088866      0.190160      0.046336
O      9.45224      9.45224      1.03696        -0.112441     -0.099502      0.030406
Zr     10.48920      2.52580     10.48920        -0.133183     -0.291998     -0.035443
Zr     10.48920     18.45260     10.48920        -0.071887      0.213473      0.097475
Zr     10.48920     10.48920      2.52580         0.071367     -0.412707     -0.248823
Zr     10.48920     10.48920     18.45260        -0.270098     -0.089096      0.324988
Zr      2.52580     10.48920     10.48920        -0.375511      0.237087      0.307971
Zr     18.45260     10.48920     10.48920         0.241621      0.000732     -0.221890
Pd     13.59949      8.99027      9.19359        -0.005494     -0.001743     -0.002737
Pd      5.63015      9.86586     10.12116         0.001155      0.000353     -0.002854
Pd      6.76949     11.84570     11.70917        -0.000142     -0.000379      0.000736
Pd     12.05374     12.99095      7.35919        -0.004384     -0.002461      0.001307
Pd     11.87411      7.73227      7.44808        -0.000186     -0.006218     -0.004250
Pd      8.31730      6.81820      6.51792        -0.000756     -0.008266     -0.005427
Pd     10.54545     11.16705      5.65653        -0.016307     -0.001361      0.000570
Pd     14.39701      8.54659      6.72406        -0.001645      0.000140     -0.001644
Pd      9.66502     11.72556      8.15785         0.002176     -0.005856      0.005424
Pd      6.72258      6.78520     12.34356        -0.002724     -0.001272      0.001700
Pd      6.63594      8.29880      7.85504         0.010602      0.012076     -0.011066
Pd      6.52310      8.48916     14.39551        -0.000336     -0.000794      0.003299
Pd     11.47972      6.50362      9.94995        -0.001489     -0.004682     -0.000508
Pd      9.45203      9.19470      7.17473        -0.005630     -0.003807      0.001239
Pd      8.97839     13.99057      9.37349        -0.000250     -0.002433      0.004264
Pd      9.42678      7.36635     11.69194        -0.002536     -0.001139     -0.003426
Pd     10.63632      8.95193      9.66680         0.002061     -0.005704     -0.008316
Pd      9.33873     11.57654     10.74466        -0.002242      0.003952      0.005267
Pd      8.85614      7.07100      9.10061        -0.002226     -0.002317     -0.004385
Pd      8.55479      6.58027     14.23106        -0.000051     -0.000304     -0.001033
Pd      7.61007      9.31737     12.04149        -0.003896     -0.001888      0.005530
Pd     11.93702     10.36902      7.69680        -0.000364     -0.003904     -0.013110
Pd      7.12949     12.01231      9.06710         0.001437     -0.002741      0.000171
Pd      8.15577      9.62379      9.49021         0.004650     -0.002800      0.009458
Pd     14.00895      6.50011      8.52507         0.000604     -0.002024      0.000148
Pd     12.62560      8.40727     11.56167        -0.004159     -0.001942     -0.001654
Pd      8.75783     11.57003     13.41784        -0.001415     -0.000587      0.004083
Pd     13.86215     11.90335      8.96795        -0.005483     -0.005226     -0.000974
Pd     12.92842     10.69704     13.07542        -0.002900     -0.004438     -0.001518
Pd     14.75524     10.42232     11.11991        -0.005097     -0.005928     -0.001713
Pd     12.04153     10.89582     10.53784        -0.005366     -0.000284     -0.001801
Pd     11.44905     13.35140      9.92907         0.000486      0.000844      0.002523
Pd     13.59702     12.90607     11.62561        -0.000268     -0.005719     -0.001602
Pd     11.11251     12.62977     12.54734        -0.000231     -0.001269      0.001527
Pd     10.94255     11.06674     14.81853         0.000610     -0.001162     -0.000248
Pd     10.49254      9.71850     12.37583        -0.005876     -0.000824     -0.002159
Pd      9.08472      9.14108     14.43892         0.000783     -0.000693      0.002350
Pd      8.79265     13.86694     12.07818        -0.001092      0.001248      0.006761
