26
# total energy = -169.64885992 eVH      0.37153      6.90941      7.50000         0.011386      0.000585     -0.000000
H      2.82192      2.06324      7.50000        -0.017929      0.006920     -0.000000
H      6.19184      6.71718      7.50000         0.001971     -0.009460     -0.000000
H      8.94245     -1.55456      7.50000        -0.011386     -0.000585     -0.000000
H      6.49206      3.29161      7.50000         0.017929     -0.006920     -0.000000
H      3.12215     -1.36233      7.50000        -0.001971      0.009460     -0.000000
C      8.50958      4.15767      7.50000         0.008546     -0.002520     -0.000000
C      1.45263     -0.08435      7.50000         0.016851      0.008034      0.000000
C      8.70661     -3.71338      7.50000         0.009664     -0.016596     -0.000000
C      0.80441      1.19718      7.50000        -0.008546      0.002520     -0.000000
C      7.86135      5.43920      7.50000        -0.016851     -0.008034     -0.000000
C      0.60737      9.06823      7.50000        -0.009664      0.016596      0.000000
C      8.20502     -2.36136      7.50000         0.002879      0.005273     -0.000000
C      7.55055      2.98269      7.50000         0.001141      0.010493      0.000000
C      2.85771     -0.31147      7.50000         0.009562     -0.013049     -0.000000
C      1.10896      7.71621      7.50000        -0.002879     -0.005273     -0.000000
C      1.76343      2.37216      7.50000        -0.001141     -0.010493      0.000000
C      6.45627      5.66632      7.50000        -0.009562      0.013049      0.000000
O      6.96069     -2.06970      7.50000        -0.002428     -0.010052      0.000000
O      7.81397      1.78043      7.50000         0.002160     -0.026513     -0.000000
O      3.86916      0.52064      7.50000         0.015697      0.009343      0.000000
O      2.35329      7.42455      7.50000         0.002428      0.010052      0.000000
O      1.50002      3.57442      7.50000        -0.002160      0.026513      0.000000
O      5.44482      4.83421      7.50000        -0.015697     -0.009343      0.000000
Au      5.62614     -0.54819      7.50000        -0.010026      0.003913      0.000000
Au      3.68785      5.90304      7.50000         0.010026     -0.003913     -0.000000
