152
# total energy = -1005.92747987 eVH     10.35389      5.87395      7.64558         0.180541      0.073219      0.578493
H     10.62451     15.10445      7.64558        -0.104910     -0.152216      0.516004
H     10.62451      5.87395     13.33282         0.483959      0.116769     -0.594123
H     10.35389     15.10445     13.33282         0.055025     -0.180757     -0.502840
H      7.64558     10.35389      5.87395         0.361151      0.030353      0.172109
H      7.64558     10.62451     15.10445         0.697975      0.500010     -0.045239
H     13.33282     10.62451      5.87395        -0.479906      0.365286      0.103179
H     13.33282     10.35389     15.10445        -0.799692     -0.070158     -0.006990
H      5.87395      7.64558     10.35389         0.271999      1.056673     -0.006224
H     15.10445      7.64558     10.62451        -0.102582      0.483305      0.282842
H      5.87395     13.33282     10.62451         0.148252     -0.687866     -0.186052
H     15.10445     13.33282     10.35389        -0.036751     -1.013625     -0.270743
H      5.87395     10.35389      7.64558         0.231651      0.027989      0.481488
H     15.10445     10.62451      7.64558        -0.129260      0.443775      0.792494
H      5.87395     10.62451     13.33282         0.149111      0.359864     -0.709612
H     15.10445     10.35389     13.33282        -0.070418     -0.045937     -0.679597
H     10.35389      7.64558      5.87395         0.328578      1.103553      0.044170
H     10.62451      7.64558     15.10445         0.565746      0.566828     -0.122937
H     10.62451     13.33282      5.87395        -0.403785     -0.806073      0.227552
H     10.35389     13.33282     15.10445        -0.049011     -0.453882     -0.243953
H      7.64558      5.87395     10.35389         0.901636      0.061531     -0.250592
H      7.64558     15.10445     10.62451         0.831977     -0.190707     -0.027420
H     13.33282      5.87395     10.62451        -0.780690      0.191624      0.579434
H     13.33282     15.10445     10.35389        -0.408792     -0.109970     -0.118906
H     12.45634     12.45634     19.01126         0.239231      0.268039     -0.239324
H     19.01126     19.01126     19.01126        -0.261451     -0.242668     -0.260059
H     19.01126     12.45634     12.45634        -0.269027      0.266261      0.222760
H     12.45634     19.01126     12.45634         0.233459     -0.261700      0.270566
C     10.35284      5.61067      6.59456        -0.366098     -0.689019     -0.016985
C     10.62556     15.36773      6.59456         0.078071      0.365298     -0.283677
C     10.62556      5.61067     14.38384        -0.299641     -0.419628     -0.258047
C     10.35284     15.36773     14.38384         0.002113      0.263720      0.497598
C      6.59456     10.35284      5.61067        -0.352125     -0.001081     -0.257451
C      6.59456     10.62556     15.36773        -0.321660     -0.185081      0.774123
C     14.38384     10.62556      5.61067        -0.231900     -0.419679     -0.540112
C     14.38384     10.35284     15.36773         0.961302     -0.074204      0.200223
C      5.61067      6.59456     10.35284        -0.553493     -0.022688     -0.271635
C     15.36773      6.59456     10.62556         0.561144     -0.001133     -0.251087
C      5.61067     14.38384     10.62556        -0.322833      0.996507      0.076287
C     15.36773     14.38384     10.35284         0.275944      1.020621      0.053886
C      5.61067     10.35284      6.59456        -0.229244     -0.051480     -0.644556
C     15.36773     10.62556      6.59456         0.425192     -0.263536      0.122956
C      5.61067     10.62556     14.38384        -0.654412     -0.324264     -0.099008
C     15.36773     10.35284     14.38384         0.396798     -0.053819      1.027148
C     10.35284      6.59456      5.61067        -0.230118     -0.507545     -0.573421
C     10.62556      6.59456     15.36773        -0.231267      0.116730      0.460089
C     10.62556     14.38384      5.61067         0.215302      1.035650     -0.335272
C     10.35284     14.38384     15.36773         0.002027      0.655688      0.386574
C      6.59456      5.61067     10.35284        -0.087276     -0.976140      0.264952
C      6.59456     15.36773     10.62556        -1.009137      0.266701      0.092123
C     14.38384      5.61067     10.62556         0.421971     -0.531137     -0.373090
C     14.38384     15.36773     10.35284         0.192697      0.426399     -0.073890
C     10.40319      3.19606      7.29314         0.013996      0.705380     -0.497850
C     10.35913      4.25547      6.23373         0.083625     -0.592544      0.056069
C      0.08601      7.29314      7.29314        -0.046199     -0.432299     -0.317434
C      0.13007      6.23373      6.23373        -0.034549      0.094468      0.579581
C      0.08601      3.19606      3.19606         0.004072      1.339195      0.294247
C      0.13007      4.25547      4.25547         0.049849     -0.744499     -0.193178
C     10.40319      7.29314      3.19606         0.010381     -0.311034      0.290077
C     10.35913      6.23373      4.25547         0.020878      0.030976     -0.747793
C      7.29314     10.40319      3.19606        -0.258518      0.019683      0.568137
C      6.23373     10.35913      4.25547         0.161944      0.052770     -0.070616
C      7.29314      0.08601      7.29314        -0.549890     -0.066750     -0.365248
C      6.23373      0.13007      6.23373         0.700406     -0.078453      0.468617
C      3.19606      0.08601      3.19606         0.903369     -0.024608      0.591521
C      4.25547      0.13007      4.25547        -0.600552     -0.079379     -0.529517
C      3.19606     10.40319      7.29314         0.469122     -0.009745     -0.766864
C      4.25547     10.35913      6.23373        -0.287901      0.073919      0.197963
C      3.19606      7.29314     10.40319         0.297613     -1.280714      0.037965
C      4.25547      6.23373     10.35913        -0.950194      0.087652      0.126464
C      7.29314      7.29314      0.08601        -0.413514     -0.384282     -0.022747
C      6.23373      6.23373      0.13007         0.457582      0.233083     -0.005641
C      3.19606      3.19606      0.08601         0.486170      0.383413     -0.041639
C      4.25547      4.25547      0.13007        -0.152506     -0.648295     -0.032443
C      7.29314      3.19606     10.40319        -0.349993      0.442231      0.066231
C      6.23373      4.25547     10.35913         0.306564     -0.692961      0.146494
O     10.43466      3.58206      8.50569        -0.009964      0.101669      0.504405
O     10.54374     17.39634      8.50569         0.037097     -0.168825      0.491954
O     10.54374      3.58206     12.47271         0.041666     -0.106260     -0.180648
O     10.43466     17.39634     12.47271        -0.038010     -0.183186     -0.515330
O      8.50569     10.43466      3.58206         0.269489     -0.017435      0.013913
O      8.50569     10.54374     17.39634         0.642720      0.026576     -0.149660
O     12.47271     10.54374      3.58206        -0.809035      0.096118      0.103303
O     12.47271     10.43466     17.39634        -0.431830      0.025058     -0.093402
O      3.58206      8.50569     10.43466         0.150900      1.036056     -0.025405
O     17.39634      8.50569     10.54374        -0.161089      0.547722      0.075636
O      3.58206     12.47271     10.54374         0.085497     -0.379055      0.054678
O     17.39634     12.47271     10.43466        -0.153046     -0.537717     -0.024865
O      3.58206     10.43466      8.50569         0.079705     -0.070423      0.607671
O     17.39634     10.54374      8.50569        -0.101272      0.073038      0.517314
O      3.58206     10.54374     12.47271         0.000736      0.038755     -0.489755
O     17.39634     10.43466     12.47271        -0.234977     -0.040556     -0.641785
O     10.43466      8.50569      3.58206        -0.036973      0.445109      0.141563
O     10.54374      8.50569     17.39634         0.040907      0.549696     -0.155501
O     10.54374     12.47271      3.58206         0.029991     -1.049511      0.171426
O     10.43466     12.47271     17.39634         0.038901     -0.718612     -0.180421
O      8.50569      3.58206     10.43466         0.534745      0.152127     -0.058060
O      8.50569     17.39634     10.54374         0.491026     -0.195069      0.014407
O     12.47271      3.58206     10.54374        -0.624613      0.217732      0.001777
O     12.47271     17.39634     10.43466        -0.243521      0.057998     -0.044330
O     11.90042     11.90042     19.56718        -0.245514     -0.284209      0.245287
O     19.56718     19.56718     19.56718         0.310166      0.298738      0.299063
O     19.56718     11.90042     11.90042         0.301197     -0.263708     -0.236354
O     11.90042     19.56718     11.90042        -0.239824      0.298351     -0.314906
O      9.45224      1.03696      9.45224        -0.013172      0.092400     -0.080308
O      1.03696      9.45224      9.45224         0.087998     -0.084806     -0.136319
O      1.03696      1.03696      1.03696         0.094370      0.190016      0.055259
O      9.45224      9.45224      1.03696        -0.103862     -0.103957      0.036941
Zr     10.48920      2.52580     10.48920        -0.132508     -0.288792     -0.010442
Zr     10.48920     18.45260     10.48920        -0.066148      0.203815      0.063620
Zr     10.48920     10.48920      2.52580        -0.074523     -0.401647     -0.267530
Zr     10.48920     10.48920     18.45260        -0.249737     -0.124491      0.329102
Zr      2.52580     10.48920     10.48920        -0.380044      0.215703      0.247450
Zr     18.45260     10.48920     10.48920         0.222007      0.000855     -0.200351
Pd     13.59065      8.92309      9.26640        -0.002921      0.000724     -0.005383
Pd      5.63504      9.89486     10.14289         0.017932     -0.024027      0.022865
Pd      6.76490     11.85660     11.67341         0.019776     -0.029362      0.005957
Pd     12.16650     13.05531      7.32065        -0.019971     -0.013386      0.004261
Pd     11.94475      7.80161      7.40317        -0.009066     -0.017706     -0.003225
Pd      8.29119      7.00546      6.57584         0.006364     -0.022165      0.011692
Pd     10.82715     11.20889      5.61282        -0.041822     -0.007557      0.004639
Pd     14.48173      8.54362      6.78611        -0.013841      0.003278     -0.009873
Pd      9.67902     11.78119      8.03511         0.007940     -0.010525      0.015766
Pd      6.82935      6.80264     12.28794        -0.035365      0.005233      0.010868
Pd      6.42260      7.74898      8.25502         0.015216      0.037197     -0.009151
Pd      6.56903      8.52674     14.28356         0.001037      0.001805      0.017195
Pd     11.49033      6.48483      9.77448         0.012270      0.021197      0.023546
Pd      9.61425      9.27081      7.07530        -0.011806     -0.010629      0.008976
Pd      9.00775     13.99494      9.31951        -0.004012      0.005405     -0.010922
Pd      9.53359      7.34918     11.72442         0.024940     -0.012453     -0.006578
Pd     10.54601      8.97022      9.66026         0.012161      0.011427      0.002559
Pd      9.31451     11.48182     10.62519         0.008376      0.017116      0.007942
Pd      8.89179      7.01302      9.14778         0.006613      0.009361      0.006836
Pd      8.57537      6.63580     14.25271         0.001000     -0.027378     -0.036320
Pd      7.70678      9.34532     11.90437         0.007010     -0.036641     -0.025004
Pd     11.98577     10.44206      7.81404         0.006674     -0.018412     -0.024262
Pd      7.14076     12.03043      9.02482         0.002357     -0.002347      0.006697
Pd      8.05684      9.56832      9.20261         0.012975      0.009684      0.014375
Pd     14.03309      6.46588      8.49893         0.004285      0.001961     -0.003873
Pd     12.45264      8.27920     11.57006         0.032677      0.018681      0.013202
Pd      8.74434     11.58660     13.38048         0.011039     -0.012734      0.011385
Pd     13.91883     11.94504      8.99602        -0.005744      0.003289     -0.007996
Pd     12.90615     10.61682     13.05651         0.017108      0.022546     -0.000428
Pd     14.78312     10.41248     11.12067         0.003084      0.003856     -0.012471
Pd     12.08071     10.82569     10.53677         0.005638      0.015231     -0.005962
Pd     11.45785     13.25666      9.85987        -0.003487      0.018548      0.011114
Pd     13.59093     12.87388     11.64517         0.006008      0.012072     -0.007432
Pd     11.09026     12.58703     12.46457         0.013847      0.001687      0.017436
Pd     10.95338     11.15325     14.80722        -0.001582     -0.035625     -0.002681
Pd     10.45463      9.75722     12.39042         0.017503     -0.000687     -0.001544
Pd      9.11900      9.20001     14.49531        -0.005815     -0.030442     -0.029489
Pd      8.78780     13.81671     11.97649         0.023018     -0.001100     -0.000723
