152
# total energy = -1024.36238088 eVH     10.35389      5.87395      7.64558         0.480898      0.032280      0.749627
H     10.62451     15.10445      7.64558         0.037735     -0.194865      0.613931
H     10.62451      5.87395     13.33282         0.095845      0.160123     -0.568945
H     10.35389     15.10445     13.33282        -0.456255     -0.042964     -0.758197
H      7.64558     10.35389      5.87395         0.339085      0.017926      0.165103
H      7.64558     10.62451     15.10445         0.900433     -0.270507      0.010032
H     13.33282     10.62451      5.87395        -0.756857     -0.065582      0.155090
H     13.33282     10.35389     15.10445        -0.889096     -0.407509      0.215106
H      5.87395      7.64558     10.35389         0.186327      0.719293     -0.253892
H     15.10445      7.64558     10.62451        -0.139304      0.394448     -0.030335
H      5.87395     13.33282     10.62451         0.158888     -0.523412     -0.114685
H     15.10445     13.33282     10.35389        -0.088468     -1.209032      0.044134
H      5.87395     10.35389      7.64558         0.140024      0.151801      0.516671
H     15.10445     10.62451      7.64558        -0.000677      0.104472      1.040566
H      5.87395     10.62451     13.33282         0.091573     -0.046976     -0.436030
H     15.10445     10.35389     13.33282        -0.142268     -0.169151     -0.496005
H     10.35389      7.64558      5.87395         0.082645      0.996652      0.229551
H     10.62451      7.64558     15.10445         0.003919      0.272808     -0.169027
H     10.62451     13.33282      5.87395        -0.102848     -0.405799      0.325033
H     10.35389     13.33282     15.10445        -0.443518     -0.609760     -0.011094
H      7.64558      5.87395     10.35389         0.496889      0.104843     -0.045541
H      7.64558     15.10445     10.62451         0.922150     -0.238998     -0.129662
H     13.33282      5.87395     10.62451        -0.589714      0.118363     -0.072041
H     13.33282     15.10445     10.35389        -0.592654     -0.053186      0.232178
H     12.45634     12.45634     19.01126         0.235214      0.279239     -0.236139
H     19.01126     19.01126     19.01126        -0.250849     -0.247532     -0.242440
H     19.01126     12.45634     12.45634        -0.265571      0.265859      0.220400
H     12.45634     19.01126     12.45634         0.236244     -0.265967      0.239515
C     10.35284      5.61067      6.59456        -0.197715     -0.674346      0.081648
C     10.62556     15.36773      6.59456        -0.037496      0.388948     -0.824543
C     10.62556      5.61067     14.38384        -0.006488     -0.056171      0.690380
C     10.35284     15.36773     14.38384         0.178643      0.707747      0.167660
C      6.59456     10.35284      5.61067        -0.341557     -0.020860     -0.289004
C      6.59456     10.62556     15.36773        -1.047005      0.292573      0.314897
C     14.38384     10.62556      5.61067         0.418135      0.350498     -0.664028
C     14.38384     10.35284     15.36773         1.029739      0.005541      0.288786
C      5.61067      6.59456     10.35284        -0.367333     -0.399488      0.367768
C     15.36773      6.59456     10.62556         0.191937     -0.511307      0.021089
C      5.61067     14.38384     10.62556        -0.201246      0.589455      0.010504
C     15.36773     14.38384     10.35284         0.352442      0.062539     -0.150894
C      5.61067     10.35284      6.59456        -0.320861     -0.077533     -1.009296
C     15.36773     10.62556      6.59456         0.850295     -0.336438     -0.966171
C      5.61067     10.62556     14.38384        -0.447062      0.028887      0.287067
C     15.36773     10.35284     14.38384         0.662074     -0.095076      1.083381
C     10.35284      6.59456      5.61067        -0.239679     -0.562704     -0.911287
C     10.62556      6.59456     15.36773         0.055367     -0.274825      0.049877
C     10.62556     14.38384      5.61067         0.084993      1.208789     -0.428244
C     10.35284     14.38384     15.36773         0.250303      0.144375      0.704556
C      6.59456      5.61067     10.35284        -0.238331     -0.744867      0.110549
C      6.59456     15.36773     10.62556        -1.213169      0.260263      0.137058
C     14.38384      5.61067     10.62556         0.993285     -0.290911      0.031952
C     14.38384     15.36773     10.35284        -0.516155      0.802661     -0.397617
C     10.40319      3.19606      7.29314        -0.025430      0.859559     -0.404501
C     10.35913      4.25547      6.23373         0.054742     -0.496334      0.556444
C      0.08601      7.29314      7.29314        -0.020960     -0.446112     -0.349978
C      0.13007      6.23373      6.23373        -0.021573      0.015660      0.102434
C      0.08601      3.19606      3.19606         0.006753      1.267413      0.189724
C      0.13007      4.25547      4.25547        -0.047820     -0.218304     -0.209343
C     10.40319      7.29314      3.19606        -0.010566     -1.041374      0.375311
C     10.35913      6.23373      4.25547         0.032594      0.468888     -0.660123
C      7.29314     10.40319      3.19606        -0.324666      0.037311      0.730625
C      6.23373     10.35913      4.25547         0.172397      0.079568     -0.101658
C      7.29314      0.08601      7.29314        -0.621229     -0.023934     -0.269288
C      6.23373      0.13007      6.23373         0.381825     -0.081016      0.491143
C      3.19606      0.08601      3.19606         0.984502     -0.008215      0.268924
C      4.25547      0.13007      4.25547        -0.127687     -0.040680     -0.513380
C      3.19606     10.40319      7.29314         0.406004     -0.011170     -0.926456
C      4.25547     10.35913      6.23373        -0.273996      0.098789      0.252422
C      3.19606      7.29314     10.40319         0.501295     -1.314798     -0.041709
C      4.25547      6.23373     10.35913        -0.496636      0.773772      0.101301
C      7.29314      7.29314      0.08601        -0.399892     -0.221165     -0.003209
C      6.23373      6.23373      0.13007         0.159554      0.147251     -0.005287
C      3.19606      3.19606      0.08601         0.249578      0.261555     -0.017349
C      4.25547      4.25547      0.13007        -0.114200     -0.055571      0.012280
C      7.29314      3.19606     10.40319        -0.381089      0.659291      0.008753
C      6.23373      4.25547     10.35913         1.122589     -0.039206      0.045690
O     10.43466      3.58206      8.50569        -0.026970      0.048732      0.446398
O     10.54374     17.39634      8.50569        -0.006508     -0.100819      0.449986
O     10.54374      3.58206     12.47271         0.040949     -0.105007     -0.132138
O     10.43466     17.39634     12.47271        -0.058368     -0.047564     -0.473884
O      8.50569     10.43466      3.58206         0.297618     -0.032990     -0.032570
O      8.50569     10.54374     17.39634         0.700831      0.024985     -0.184753
O     12.47271     10.54374      3.58206        -0.777013     -0.041165      0.149146
O     12.47271     10.43466     17.39634        -0.325934     -0.026416      0.016897
O      3.58206      8.50569     10.43466         0.157124      1.085439     -0.027793
O     17.39634      8.50569     10.54374        -0.093532      0.421056      0.059727
O      3.58206     12.47271     10.54374         0.068944     -0.404694      0.038256
O     17.39634     12.47271     10.43466        -0.160664     -0.687996     -0.004636
O      3.58206     10.43466      8.50569         0.057074     -0.071320      0.771293
O     17.39634     10.54374      8.50569        -0.065570      0.046362      0.340747
O      3.58206     10.54374     12.47271        -0.013378      0.035625     -0.254204
O     17.39634     10.43466     12.47271        -0.249304      0.008953     -0.711579
O     10.43466      8.50569      3.58206         0.116064      0.828561      0.196602
O     10.54374      8.50569     17.39634         0.035072      0.642199     -0.152823
O     10.54374     12.47271      3.58206         0.001069     -1.012302      0.179334
O     10.43466     12.47271     17.39634        -0.031522     -0.912144     -0.203061
O      8.50569      3.58206     10.43466         0.549242      0.115933     -0.016162
O      8.50569     17.39634     10.54374         0.520919     -0.203598     -0.011586
O     12.47271      3.58206     10.54374        -0.468635      0.156788      0.057451
O     12.47271     17.39634     10.43466        -0.408152      0.026292     -0.006403
O     11.90042     11.90042     19.56718        -0.265771     -0.328701      0.255353
O     19.56718     19.56718     19.56718         0.281714      0.289835      0.284371
O     19.56718     11.90042     11.90042         0.298679     -0.301110     -0.202181
O     11.90042     19.56718     11.90042        -0.268180      0.285482     -0.248087
O      9.45224      1.03696      9.45224        -0.079825      0.047440     -0.058814
O      1.03696      9.45224      9.45224         0.041543     -0.155834     -0.118264
O      1.03696      1.03696      1.03696         0.020747      0.117857      0.200628
O      9.45224      9.45224      1.03696        -0.066643     -0.086793      0.120993
Zr     10.48920      2.52580     10.48920        -0.044683     -0.115462     -0.169524
Zr     10.48920     18.45260     10.48920         0.017589      0.218018     -0.021694
Zr     10.48920     10.48920      2.52580        -0.147757     -0.189485     -0.521112
Zr     10.48920     10.48920     18.45260        -0.034060      0.012152      0.455910
Zr      2.52580     10.48920     10.48920        -0.362346      0.290842      0.181259
Zr     18.45260     10.48920     10.48920         0.202956      0.048260     -0.213919
Pd      8.42890      9.79093     13.24285        -0.041226     -0.040094     -0.033662
Pd     10.51542      9.48022     10.20462         0.062434     -0.085725     -0.016497
Pd     13.17987      8.72975     12.46615        -0.091367      0.041777     -0.012857
Pd     10.36848     10.72949     15.06231        -0.044135     -0.002075     -0.026164
Pd     12.88006     11.33672     13.51749         0.029057      0.094082     -0.004586
Pd     14.87104     10.67753     11.34256         0.016680     -0.006500      0.004427
Pd      6.85226      7.66477     12.33558         0.013240     -0.041373      0.038082
Pd      9.21953      7.21748      9.49950         0.002621      0.036010      0.034447
Pd      9.54407      7.55626     12.22696        -0.033898      0.017029      0.010892
Pd     11.74189      7.12669     10.85119         0.044923      0.033347     -0.040347
Pd     11.62738      7.82699      8.27997         0.012620      0.053928      0.077893
Pd      7.15311     11.71148     11.55654         0.006672      0.019659      0.073971
Pd      9.26905     14.32831      9.30319        -0.021334     -0.028136      0.004338
Pd      8.14473     12.36878     14.10323         0.026083     -0.093899     -0.063560
Pd     14.24162     14.21910      8.33144        -0.074238      0.004662      0.019891
Pd     11.72722     13.33994      8.81405         0.095329     -0.074984     -0.094643
Pd     14.11727     11.65855      8.97599        -0.031545     -0.107710      0.076886
Pd      8.71832     13.97128     12.05768         0.022882     -0.030666     -0.008271
Pd     12.21119     13.95969     13.95262         0.016079     -0.031889     -0.012726
Pd     11.39182     14.10940     11.32160         0.014462      0.061081      0.043096
Pd     14.01678     13.34124     12.08421        -0.048888     -0.034627      0.047514
Pd     12.27068     11.54399     10.88654         0.089314     -0.025628     -0.050495
Pd     12.97330     12.63864      6.59196         0.015093     -0.002991      0.047548
Pd     13.95830      8.83910      7.57584        -0.012280      0.008554      0.032704
Pd      6.97680      8.46601      8.42542         0.031191     -0.002245     -0.018890
Pd      5.55562     10.04920     10.07166        -0.049831     -0.028425      0.060208
Pd      9.40309      9.46739      7.50988         0.017241      0.048280     -0.040982
Pd      8.49065      6.97828      6.90949        -0.021204      0.024105     -0.016158
Pd      9.64719     11.93625     10.55550         0.012995      0.091487      0.021482
Pd     11.81901     10.62561      8.05876        -0.088676      0.025822      0.006587
Pd     11.77986      8.94847      5.86909        -0.024380     -0.021650     -0.000293
Pd     10.59273     11.34330      5.75006        -0.033750     -0.021798      0.081986
Ir     10.89823      9.75624     12.70275        -0.024459     -0.006823      0.016946
Ir     13.17935      9.27955      9.96100        -0.091194     -0.018820     -0.073473
Ir     10.49760     12.21295     12.91654        -0.042036      0.034713     -0.012741
Ir      7.73728     11.02729      9.06538         0.066280     -0.021300     -0.062009
Ir      9.59223     12.07911      7.99276        -0.017496     -0.072335     -0.044053
Ir      8.03592      9.25100     10.74369        -0.045584     -0.058048     -0.037421
