152
# total energy = -1060.10680434 eVH     10.35389      5.87395      7.64558        -0.312926      0.087142      1.111075
H     10.62451     15.10445      7.64558         0.071993     -0.069908      0.922017
H     10.62451      5.87395     13.33282        -0.271928      0.067234     -0.792725
H     10.35389     15.10445     13.33282         0.081594     -0.305332     -0.851562
H      7.64558     10.35389      5.87395         0.916704     -0.171660      0.197329
H      7.64558     10.62451     15.10445         0.323548     -0.032288     -0.066895
H     13.33282     10.62451      5.87395        -0.875505      0.209331      0.225666
H     13.33282     10.35389     15.10445        -0.279302     -0.023175     -0.068044
H      5.87395      7.64558     10.35389         0.088622      0.428325     -0.009001
H     15.10445      7.64558     10.62451        -0.012045      0.438410     -0.059544
H      5.87395     13.33282     10.62451        -0.006124     -0.961728      0.089043
H     15.10445     13.33282     10.35389        -0.055602     -0.328016     -0.004833
H      5.87395     10.35389      7.64558         0.297910      0.087789      0.383387
H     15.10445     10.62451      7.64558        -0.117451     -0.172395      0.675168
H      5.87395     10.62451     13.33282        -0.074933      0.468304     -0.613587
H     15.10445     10.35389     13.33282         0.253095     -0.656597     -0.846264
H     10.35389      7.64558      5.87395        -0.044573      0.494228      0.340152
H     10.62451      7.64558     15.10445         0.331940      0.807951      0.003246
H     10.62451     13.33282      5.87395         0.151377     -0.564084      0.199745
H     10.35389     13.33282     15.10445         0.024165     -0.284657     -0.166267
H      7.64558      5.87395     10.35389         0.362551      0.106524      0.057234
H      7.64558     15.10445     10.62451         0.385854     -0.126974      0.170658
H     13.33282      5.87395     10.62451        -0.310065      0.136832     -0.019087
H     13.33282     15.10445     10.35389        -0.668097     -0.090475      0.128759
H     12.45634     12.45634     19.01126         0.257196      0.271992     -0.227612
H     19.01126     19.01126     19.01126        -0.246369     -0.268250     -0.246212
H     19.01126     12.45634     12.45634        -0.250129      0.271870      0.235596
H     12.45634     19.01126     12.45634         0.289357     -0.236669      0.234147
C     10.35284      5.61067      6.59456         0.400984     -0.420346     -1.373736
C     10.62556     15.36773      6.59456        -0.149846      0.591596     -0.646374
C     10.62556      5.61067     14.38384         0.372274     -0.298694      0.795490
C     10.35284     15.36773     14.38384        -0.215870      0.194720      1.075945
C      6.59456     10.35284      5.61067        -1.418505      0.034365     -0.241811
C      6.59456     10.62556     15.36773        -0.650227      0.065984      0.364883
C     14.38384     10.62556      5.61067         1.291851     -0.177233     -0.643583
C     14.38384     10.35284     15.36773         0.328614     -0.124993      0.345879
C      5.61067      6.59456     10.35284        -0.281252     -0.690916     -0.029252
C     15.36773      6.59456     10.62556         0.418463     -0.901203      0.047578
C      5.61067     14.38384     10.62556        -0.145587      1.174114     -0.214826
C     15.36773     14.38384     10.35284         0.508647      0.686261     -0.027311
C      5.61067     10.35284      6.59456        -0.376134     -0.096901     -0.736888
C     15.36773     10.62556      6.59456         0.423756      0.108938     -0.734614
C      5.61067     10.62556     14.38384        -0.400781     -0.170893      1.228583
C     15.36773     10.35284     14.38384         0.254834      0.201846      1.466844
C     10.35284      6.59456      5.61067        -0.059172     -0.735935     -0.580147
C     10.62556      6.59456     15.36773        -0.141656     -0.981042      0.370578
C     10.62556     14.38384      5.61067        -0.483059      0.381438     -0.741026
C     10.35284     14.38384     15.36773        -0.163597      0.726656      0.465905
C      6.59456      5.61067     10.35284        -0.562114     -0.349567      0.004014
C      6.59456     15.36773     10.62556        -0.382643      0.448852      0.060041
C     14.38384      5.61067     10.62556         0.437351     -0.320295      0.003625
C     14.38384     15.36773     10.35284         1.140782      0.515386     -0.072589
C     10.40319      3.19606      7.29314        -0.004384      0.727514     -0.329604
C     10.35913      4.25547      6.23373         0.015624     -0.397198      0.282853
C      0.08601      7.29314      7.29314        -0.018114     -0.367590     -0.509987
C      0.13007      6.23373      6.23373        -0.052603      0.898233      0.085260
C      0.08601      3.19606      3.19606        -0.005634      0.700614      0.265395
C      0.13007      4.25547      4.25547         0.041286     -0.269609     -0.542408
C     10.40319      7.29314      3.19606        -0.066512     -1.139104      0.584070
C     10.35913      6.23373      4.25547        -0.041673      0.355752     -0.198160
C      7.29314     10.40319      3.19606        -1.112891     -0.059135      0.191476
C      6.23373     10.35913      4.25547         0.375905      0.090096     -0.536788
C      7.29314      0.08601      7.29314        -0.429090      0.033002     -0.497745
C      6.23373      0.13007      6.23373         0.180276      0.125727      0.128260
C      3.19606      0.08601      3.19606         0.719688      0.029175      0.164447
C      4.25547      0.13007      4.25547        -0.170097     -0.043773     -0.371598
C      3.19606     10.40319      7.29314         0.367381     -0.024662     -0.928963
C      4.25547     10.35913      6.23373        -0.137562     -0.066543      0.100285
C      3.19606      7.29314     10.40319         0.598296     -0.401719      0.001260
C      4.25547      6.23373     10.35913        -0.112333      0.188217      0.009374
C      7.29314      7.29314      0.08601        -0.424614     -0.305422     -0.017699
C      6.23373      6.23373      0.13007         0.151911      0.171503     -0.050449
C      3.19606      3.19606      0.08601         0.291234      0.486616     -0.026702
C      4.25547      4.25547      0.13007        -0.392617     -0.229460     -0.038415
C      7.29314      3.19606     10.40319        -0.274419      0.583829     -0.010365
C      6.23373      4.25547     10.35913         0.018891     -0.087727      0.016992
O     10.43466      3.58206      8.50569        -0.026271      0.083792      0.313177
O     10.54374     17.39634      8.50569         0.063418     -0.130752      0.607029
O     10.54374      3.58206     12.47271         0.028575      0.101745     -0.396683
O     10.43466     17.39634     12.47271         0.091930     -0.055577     -0.406834
O      8.50569     10.43466      3.58206         0.739595     -0.070165      0.008274
O      8.50569     10.54374     17.39634         0.481864      0.057510     -0.084995
O     12.47271     10.54374      3.58206        -0.664103      0.108760      0.212719
O     12.47271     10.43466     17.39634        -0.280032      0.003621      0.027919
O      3.58206      8.50569     10.43466         0.037184      0.451407     -0.064650
O     17.39634      8.50569     10.54374        -0.054204      0.452786      0.056187
O      3.58206     12.47271     10.54374         0.107250     -0.589498      0.002707
O     17.39634     12.47271     10.43466        -0.174768     -0.730206     -0.054330
O      3.58206     10.43466      8.50569         0.207797     -0.063750      0.799918
O     17.39634     10.54374      8.50569        -0.101870      0.075097      0.551185
O      3.58206     10.54374     12.47271        -0.007654     -0.004079     -0.255210
O     17.39634     10.43466     12.47271         0.044712     -0.011786     -0.214930
O     10.43466      8.50569      3.58206        -0.098855      0.543733     -0.104709
O     10.54374      8.50569     17.39634         0.061913      0.506926     -0.085300
O     10.54374     12.47271      3.58206         0.104522     -0.641132      0.130542
O     10.43466     12.47271     17.39634        -0.063914     -0.671693     -0.260825
O      8.50569      3.58206     10.43466         0.396496      0.026768     -0.040920
O      8.50569     17.39634     10.54374         0.638687     -0.156360      0.046840
O     12.47271      3.58206     10.54374        -0.511659      0.122047      0.031435
O     12.47271     17.39634     10.43466        -0.617698     -0.130536      0.039251
O     11.90042     11.90042     19.56718        -0.277111     -0.307620      0.227048
O     19.56718     19.56718     19.56718         0.306401      0.322173      0.300233
O     19.56718     11.90042     11.90042         0.284110     -0.327739     -0.233106
O     11.90042     19.56718     11.90042        -0.314385      0.230243     -0.201069
O      9.45224      1.03696      9.45224        -0.075141      0.079500     -0.079806
O      1.03696      9.45224      9.45224         0.094749     -0.110029     -0.058443
O      1.03696      1.03696      1.03696         0.081122      0.053355      0.100456
O      9.45224      9.45224      1.03696        -0.058877     -0.129420      0.133159
Zr     10.48920      2.52580     10.48920         0.037889     -0.083342      0.103428
Zr     10.48920     18.45260     10.48920        -0.175832      0.258234     -0.355121
Zr     10.48920     10.48920      2.52580         0.113827      0.360678     -0.353081
Zr     10.48920     10.48920     18.45260        -0.085539     -0.242454      0.219451
Zr      2.52580     10.48920     10.48920        -0.243527      0.136003      0.236719
Zr     18.45260     10.48920     10.48920         0.209510     -0.121518     -0.007081
Pd      9.38134     14.27494      9.34833        -0.006732      0.023999     -0.028069
Pd      8.60707     13.66688     12.97665        -0.003428     -0.007510      0.030483
Pd     12.03015     14.40118      8.72793         0.003004     -0.004710      0.008466
Pd     12.81459     12.87108     10.64199        -0.041944      0.002002      0.028732
Pd     12.11416      7.16851     12.65528         0.010494     -0.002830     -0.003045
Pd     11.20493     14.84897     11.49475        -0.029025      0.026358     -0.025313
Pd     10.09068     12.50262     11.09842        -0.043031      0.036747     -0.026851
Pd     13.47320     12.12288      7.97400         0.009509      0.017332      0.003866
Pd     11.47947     11.53886      6.10414         0.003042      0.002652     -0.003198
Pd      7.91045      8.49161      7.52906         0.005884     -0.042529      0.001344
Pd      8.72245     11.75414      6.84885        -0.004429      0.002088     -0.004049
Pd     10.34418      9.45702      8.13454        -0.013361     -0.007242      0.002274
Pd      8.50787     14.46346      6.82597        -0.011578      0.000718     -0.023296
Pd     12.39173      8.99316      6.52716         0.002405      0.014216      0.020260
Pd      9.71734      9.61452      5.55987        -0.002151      0.000002      0.004423
Pd      6.83157      9.44523     12.17207        -0.001666      0.006222     -0.007386
Pd     12.18755      6.71964      7.92740        -0.003143      0.010744      0.005792
Pd      5.91740     10.46338      9.71798        -0.000623      0.001047     -0.005165
Pd      7.57447      7.21262     13.40821        -0.008664      0.008283     -0.010568
Ir     11.76820      9.75637     13.04899        -0.020948     -0.006030      0.011223
Ir     13.55957      9.01100     11.44408        -0.012857      0.022096      0.014724
Ir      9.44776      8.85615     13.98272        -0.025752      0.004687      0.013490
Ir     10.55147     11.02604     14.84433        -0.022185     -0.028013      0.050826
Ir      7.28515     12.01143     11.33999        -0.008224     -0.000418     -0.006057
Ir     14.67516     10.85441     10.10111        -0.015566      0.028183      0.029324
Ir     12.15629     10.56240      9.70340         0.005649     -0.001341     -0.023451
Ir      8.75833     11.00696     12.99735         0.008901      0.012237     -0.004569
Ir     10.10761      9.88750     11.19050        -0.001476      0.018209     -0.018353
Ir     13.77663     11.37988     12.42870        -0.031744      0.013424      0.044089
Ir     11.66917     12.35797     13.07777        -0.072768     -0.019673      0.009156
Ir      8.50352     11.07967      9.33929        -0.004418      0.006720     -0.006282
Ir     11.57382      8.01111     10.11513         0.012926      0.006595      0.005992
Ir      7.22792     13.02292      8.67050         0.015609      0.001259      0.007312
Ir      9.51759      6.98658      9.18620         0.011145     -0.009306      0.021894
Ir      8.04165      8.75845     10.07801         0.001525     -0.000489     -0.003270
Ir     10.72155     12.11473      8.50386        -0.000352      0.005747     -0.008779
Ir      9.51277      7.52940     11.72947         0.005277      0.014866      0.019338
Ir     13.63576      8.79340      8.80117         0.014665      0.002743      0.024518
