35
# total energy = -301.58665036 eVC      6.68835     10.29685      7.66693        -0.032905      0.022202     -0.028336
C      8.07595      9.94966      7.58575         0.000244     -0.013309     -0.002663
C      9.41707      5.71442      7.64490        -0.031677     -0.004440     -0.027104
C      1.46408      5.34505      7.68840         0.016612      0.016811      0.017454
C      4.19161      0.76040      7.64205         0.060450     -0.016946     -0.032619
C      2.80343      1.10668      7.56973         0.031096     -0.022508     -0.015530
C      0.70392      4.16416      7.65879        -0.026551      0.007380     -0.017323
C      1.08513      2.78574      7.57877         0.042096     -0.022564      0.007125
C      5.35435      1.55041      7.63418        -0.013505      0.013808     -0.014974
C      5.52587      9.50789      7.69620         0.011766     -0.022620      0.020970
C     10.17782      6.89550      7.64752         0.026202     -0.041783     -0.023382
C      9.79787      8.27441      7.57478        -0.017069     -0.019187     -0.003097
C      0.77803      6.57576      7.65555         0.026201     -0.057601     -0.008414
C      1.26646      7.92032      7.57764         0.034928     -0.026993      0.027054
C     10.10338      4.48385      7.64254        -0.020244      0.023138     -0.009592
C      9.61692      3.13881      7.55459        -0.058730      0.003357      0.002332
C      4.27807     10.16190      7.66483         0.039007      0.011344     -0.012641
C      2.94550      9.64065      7.58399         0.029548     -0.027473      0.023506
C      6.60171      0.89483      7.63330        -0.017561      0.026214     -0.006891
C      7.93475      1.41472      7.54630        -0.017524      0.064700      0.014276
N      8.80560      0.32838      7.46882         0.027135     -0.050675      0.012679
N      0.16093      8.76503      7.48570        -0.058869      0.036851      0.002221
N      8.54924      8.71315      7.60065        -0.055541     -0.022202      0.041745
N      2.33406      2.34368      7.59502        -0.018974      0.076437      0.041241
N      2.07363     10.72528      7.49347        -0.025333      0.064824      0.001954
N     10.72405      2.29439      7.47918         0.065803     -0.007738      0.001257
N      2.58012      8.31746      7.59179         0.043042     -0.020728      0.080351
N      8.30266      2.73889      7.54865        -0.038318      0.008958      0.049774
O      5.32215      2.87904      7.56537         0.065255      0.017382     -0.035136
O      5.56134      8.17826      7.73333        -0.065761     -0.000260      0.028999
O      8.08801      5.71485      7.58109        -0.027280     -0.075574     -0.044425
O      2.79405      5.34368      7.72697        -0.005101      0.058051      0.028059
Zr      6.54406      4.45432      7.46228        -0.016779      0.025628     -0.013368
Zr      4.34359      6.59887      7.77395         0.022682     -0.028600      0.014164
Zr      0.02739     10.81049      6.86951         0.005657      0.004117     -0.119666
