22
# total energy = -134.21778101 eVC      8.76516      1.73605      7.50000        -0.310488     -0.376214      0.000000
C      0.71380      7.74291      7.50000         0.310488      0.376214      0.000000
C      7.74291      8.76516      7.50000         0.376214     -0.310488     -0.000000
C      1.73605      0.71380      7.50000        -0.376214      0.310488      0.000000
C      0.71380      1.73605      7.50000         0.310488     -0.376214      0.000000
C      8.76516      7.74291      7.50000        -0.310488      0.376214     -0.000000
C      1.73605      8.76516      7.50000        -0.376214     -0.310488      0.000000
C      7.74291      0.71380      7.50000         0.376214      0.310488     -0.000000
O      8.24307      2.96543      7.50000        -0.082854      0.193854      0.000000
O      1.23589      6.51353      7.50000         0.082854     -0.193854      0.000000
O      6.51353      8.24307      7.50000        -0.193854     -0.082854      0.000000
O      2.96543      1.23589      7.50000         0.193854      0.082854      0.000000
O      1.23589      2.96543      7.50000         0.082854      0.193854     -0.000000
O      8.24307      6.51353      7.50000        -0.082854     -0.193854     -0.000000
O      2.96543      8.24307      7.50000         0.193854     -0.082854     -0.000000
O      6.51353      1.23589      7.50000        -0.193854      0.082854     -0.000000
Au     -0.00000      4.73948      7.50000         0.000000     -0.000000      0.000000
Au      4.73948      0.00000      7.50000         0.000000     -0.000000      0.000000
Au      3.44496      6.03400      7.50000        -0.023502      0.023502      0.000000
Au      6.03400      3.44496      7.50000         0.023502     -0.023502      0.000000
Au      3.44496      3.44496      7.50000        -0.023502     -0.023502      0.000000
Au      6.03400      6.03400      7.50000         0.023502      0.023502      0.000000
