38
# total energy = -255.12905067 eVH      1.22553      6.94280      7.50000        -0.005169      0.008882     -0.000000
H      8.09992      6.77003      7.50000         0.016561     -0.001365     -0.000000
H      4.45945     13.86318      7.50000        -0.003200     -0.007785     -0.000000
H     12.67428      2.18032      7.50000         0.005169     -0.008882     -0.000000
H      5.79989      2.35310      7.50000        -0.016561      0.001365     -0.000000
H      9.44037     -4.74006      7.50000         0.003200      0.007785     -0.000000
H      5.81285     -2.34576      7.50000        -0.016636     -0.000885     -0.000000
H      9.44122      4.72567      7.50000         0.004081     -0.008314      0.000000
H     12.66499     -2.17399      7.50000         0.010887      0.005057     -0.000000
H      8.08696     11.46888      7.50000         0.016636      0.000885     -0.000000
H      4.45860      4.39745      7.50000        -0.004081      0.008314      0.000000
H      1.23483     11.29711      7.50000        -0.010887     -0.005057     -0.000000
C      7.73496     -3.36915      7.50000         0.001465     -0.003783     -0.000000
C     12.48077      0.00309      7.50000         0.002518     -0.000693     -0.000000
C      7.72853      3.36370      7.50000        -0.004462      0.000097      0.000000
C      6.16485     12.49227      7.50000        -0.001465      0.003783     -0.000000
C      1.41905      9.12003      7.50000        -0.002518      0.000693      0.000000
C      6.17129      5.75942      7.50000         0.004462     -0.000097      0.000000
C     13.20773     -1.22637      7.50000        -0.001721      0.003955      0.000000
C      8.35152      4.64183      7.50000         0.001146      0.002346     -0.000000
C      6.31384     -3.31624      7.50000        -0.004545      0.000022      0.000000
C      0.69208     10.34949      7.50000         0.001721     -0.003955     -0.000000
C      5.54829      4.48129      7.50000        -0.001146     -0.002346      0.000000
C      7.58597     12.43936      7.50000         0.004545     -0.000022      0.000000
C      5.54873     13.77377      7.50000        -0.006965     -0.000372      0.000000
C      7.59265      5.80273      7.50000         0.003591      0.007802     -0.000000
C      0.68802      7.89336      7.50000        -0.006027      0.006678      0.000000
C      8.35108     -4.65065      7.50000         0.006965      0.000372     -0.000000
C      6.30716      3.32039      7.50000        -0.003591     -0.007802     -0.000000
C     13.21179      1.22976      7.50000         0.006027     -0.006678     -0.000000
N      5.85589      9.13154      7.50000        -0.003289     -0.006390      0.000000
N      8.04392     -0.00842      7.50000         0.003289      0.006390     -0.000000
Ir      8.76986      1.64605      7.50000         0.011112      0.000921      0.000000
Ir      8.78177     -1.65755      7.50000         0.002056      0.001053     -0.000000
Ir     10.54644      0.00048      7.50000         0.007913      0.005197     -0.000000
Ir      5.12995      7.47707      7.50000        -0.011112     -0.000921      0.000000
Ir      5.11805     10.78067      7.50000        -0.002056     -0.001053     -0.000000
Ir      3.35337      9.12264      7.50000        -0.007913     -0.005197     -0.000000
