8
# total energy = -53.27013382 eVC      1.14292     13.22736     -0.00000        -0.000000      2.795682     -0.000000
C      1.14292      4.05884      0.00000         0.000000     -2.795682      0.000000
O      1.14292      5.20965      0.00000        -0.000000      4.420161     -0.000000
O      1.14292     12.07655     -0.00000        -0.000000     -4.420161      0.000000
O      0.00000     13.97164      0.00000         0.000000      1.493256      0.000000
O      0.00000      3.31456     -0.00000        -0.000000     -1.493256      0.000000
Ir      0.00000      8.64310      0.00000        -0.000000      0.000000      0.000000
Ir      0.00000      0.00000      0.00000        -0.000000      0.000000      0.000000
