152
# total energy = -1060.05994985 eVH     10.35389      5.87395      7.64558        -0.270963      0.022100      1.134809
H     10.62451     15.10445      7.64558         0.070364     -0.089458      0.925284
H     10.62451      5.87395     13.33282        -0.251923      0.081503     -0.790021
H     10.35389     15.10445     13.33282         0.100595     -0.299919     -0.883552
H      7.64558     10.35389      5.87395         0.932549     -0.129139      0.185442
H      7.64558     10.62451     15.10445         0.330818     -0.038802     -0.074892
H     13.33282     10.62451      5.87395        -0.864601      0.203328      0.204149
H     13.33282     10.35389     15.10445        -0.278380     -0.012418     -0.068292
H      5.87395      7.64558     10.35389         0.087972      0.416674     -0.010384
H     15.10445      7.64558     10.62451         0.002528      0.500237     -0.031057
H      5.87395     13.33282     10.62451        -0.016853     -0.961776      0.078238
H     15.10445     13.33282     10.35389        -0.084675     -0.320323      0.004197
H      5.87395     10.35389      7.64558         0.278451      0.114248      0.409757
H     15.10445     10.62451      7.64558        -0.124401     -0.172031      0.659020
H      5.87395     10.62451     13.33282        -0.088805      0.462667     -0.619696
H     15.10445     10.35389     13.33282         0.251827     -0.629907     -0.824894
H     10.35389      7.64558      5.87395        -0.041716      0.483507      0.333623
H     10.62451      7.64558     15.10445         0.238893      0.763081     -0.036250
H     10.62451     13.33282      5.87395         0.125024     -0.571536      0.208597
H     10.35389     13.33282     15.10445         0.041348     -0.286904     -0.139501
H      7.64558      5.87395     10.35389         0.342508      0.097169      0.025238
H      7.64558     15.10445     10.62451         0.376746     -0.116868      0.162986
H     13.33282      5.87395     10.62451        -0.316143      0.129369     -0.032390
H     13.33282     15.10445     10.35389        -0.653195     -0.130917      0.148191
H     12.45634     12.45634     19.01126         0.255348      0.271189     -0.228915
H     19.01126     19.01126     19.01126        -0.246363     -0.268016     -0.245563
H     19.01126     12.45634     12.45634        -0.251241      0.269628      0.235297
H     12.45634     19.01126     12.45634         0.290563     -0.235691      0.234444
C     10.35284      5.61067      6.59456         0.397921     -0.420314     -1.443820
C     10.62556     15.36773      6.59456        -0.159057      0.583114     -0.639929
C     10.62556      5.61067     14.38384         0.384798     -0.341197      0.841072
C     10.35284     15.36773     14.38384        -0.229339      0.228911      1.098062
C      6.59456     10.35284      5.61067        -1.376275      0.021744     -0.235395
C      6.59456     10.62556     15.36773        -0.645781      0.062025      0.373030
C     14.38384     10.62556      5.61067         1.310569     -0.170045     -0.628149
C     14.38384     10.35284     15.36773         0.364988     -0.123867      0.358792
C      5.61067      6.59456     10.35284        -0.289934     -0.641407     -0.018516
C     15.36773      6.59456     10.62556         0.420771     -0.975863      0.032543
C      5.61067     14.38384     10.62556        -0.131621      1.164821     -0.180102
C     15.36773     14.38384     10.35284         0.461715      0.649651     -0.026618
C      5.61067     10.35284      6.59456        -0.368652     -0.100299     -0.721088
C     15.36773     10.62556      6.59456         0.410498      0.119183     -0.734753
C      5.61067     10.62556     14.38384        -0.382254     -0.172850      1.231244
C     15.36773     10.35284     14.38384         0.273315      0.190768      1.476808
C     10.35284      6.59456      5.61067        -0.052852     -0.718591     -0.609252
C     10.62556      6.59456     15.36773        -0.099675     -0.861443      0.345806
C     10.62556     14.38384      5.61067        -0.468325      0.411644     -0.705834
C     10.35284     14.38384     15.36773        -0.155029      0.597074      0.418506
C      6.59456      5.61067     10.35284        -0.509632     -0.336404      0.029896
C      6.59456     15.36773     10.62556        -0.382721      0.454399      0.055054
C     14.38384      5.61067     10.62556         0.447788     -0.377581      0.002024
C     14.38384     15.36773     10.35284         1.119443      0.497908     -0.072592
C     10.40319      3.19606      7.29314        -0.000265      0.667513     -0.338431
C     10.35913      4.25547      6.23373         0.008222     -0.433185      0.289925
C      0.08601      7.29314      7.29314        -0.013360     -0.363515     -0.502832
C      0.13007      6.23373      6.23373        -0.072807      0.842836      0.064059
C      0.08601      3.19606      3.19606        -0.002398      0.679603      0.268092
C      0.13007      4.25547      4.25547         0.029058     -0.271151     -0.538203
C     10.40319      7.29314      3.19606        -0.066988     -1.153115      0.573036
C     10.35913      6.23373      4.25547        -0.038932      0.367751     -0.198913
C      7.29314     10.40319      3.19606        -1.082062     -0.056996      0.190875
C      6.23373     10.35913      4.25547         0.364793      0.084875     -0.540186
C      7.29314      0.08601      7.29314        -0.424562      0.033403     -0.535335
C      6.23373      0.13007      6.23373         0.180343      0.129300      0.127897
C      3.19606      0.08601      3.19606         0.697073      0.024493      0.164281
C      4.25547      0.13007      4.25547        -0.171954     -0.052449     -0.360614
C      3.19606     10.40319      7.29314         0.387822     -0.025536     -0.882502
C      4.25547     10.35913      6.23373        -0.156773     -0.079508      0.097987
C      3.19606      7.29314     10.40319         0.603471     -0.392767      0.002401
C      4.25547      6.23373     10.35913        -0.114304      0.182654      0.000340
C      7.29314      7.29314      0.08601        -0.408080     -0.319307     -0.014749
C      6.23373      6.23373      0.13007         0.187501      0.190135     -0.062855
C      3.19606      3.19606      0.08601         0.288924      0.479057     -0.023633
C      4.25547      4.25547      0.13007        -0.402237     -0.229478     -0.032624
C      7.29314      3.19606     10.40319        -0.279465      0.591934     -0.011751
C      6.23373      4.25547     10.35913         0.004314     -0.116178      0.021263
O     10.43466      3.58206      8.50569        -0.028839      0.096600      0.323302
O     10.54374     17.39634      8.50569         0.063244     -0.130753      0.592701
O     10.54374      3.58206     12.47271         0.027259      0.106787     -0.391516
O     10.43466     17.39634     12.47271         0.089638     -0.046562     -0.380114
O      8.50569     10.43466      3.58206         0.710304     -0.061558      0.013021
O      8.50569     10.54374     17.39634         0.471207      0.057386     -0.076064
O     12.47271     10.54374      3.58206        -0.651266      0.115856      0.204677
O     12.47271     10.43466     17.39634        -0.284383     -0.004737      0.019112
O      3.58206      8.50569     10.43466         0.041848      0.461569     -0.067701
O     17.39634      8.50569     10.54374        -0.060487      0.455567      0.056280
O      3.58206     12.47271     10.54374         0.114407     -0.583052      0.002200
O     17.39634     12.47271     10.43466        -0.171361     -0.741030     -0.057953
O      3.58206     10.43466      8.50569         0.213489     -0.062065      0.782548
O     17.39634     10.54374      8.50569        -0.104808      0.076177      0.569788
O      3.58206     10.54374     12.47271        -0.001173     -0.001715     -0.268162
O     17.39634     10.43466     12.47271         0.039107     -0.012710     -0.221771
O     10.43466      8.50569      3.58206        -0.104829      0.571187     -0.115117
O     10.54374      8.50569     17.39634         0.067521      0.503787     -0.092033
O     10.54374     12.47271      3.58206         0.104892     -0.625486      0.133643
O     10.43466     12.47271     17.39634        -0.059989     -0.644846     -0.250033
O      8.50569      3.58206     10.43466         0.395974      0.027163     -0.034558
O      8.50569     17.39634     10.54374         0.628890     -0.154016      0.048597
O     12.47271      3.58206     10.54374        -0.507701      0.126838      0.036203
O     12.47271     17.39634     10.43466        -0.622063     -0.134558      0.038723
O     11.90042     11.90042     19.56718        -0.273876     -0.307480      0.234995
O     19.56718     19.56718     19.56718         0.302751      0.318391      0.300031
O     19.56718     11.90042     11.90042         0.284993     -0.324583     -0.231328
O     11.90042     19.56718     11.90042        -0.317094      0.229831     -0.202089
O      9.45224      1.03696      9.45224        -0.085395      0.085801     -0.065919
O      1.03696      9.45224      9.45224         0.102642     -0.117685     -0.045066
O      1.03696      1.03696      1.03696         0.083016      0.055651      0.098720
O      9.45224      9.45224      1.03696        -0.060522     -0.131417      0.131691
Zr     10.48920      2.52580     10.48920         0.031512     -0.089026      0.073650
Zr     10.48920     18.45260     10.48920        -0.170226      0.261236     -0.346966
Zr     10.48920     10.48920      2.52580         0.120324      0.354883     -0.351115
Zr     10.48920     10.48920     18.45260        -0.082782     -0.200598      0.178710
Zr      2.52580     10.48920     10.48920        -0.255273      0.126118      0.225979
Zr     18.45260     10.48920     10.48920         0.228067     -0.113491     -0.001040
Pd      9.39273     14.25081      9.36762        -0.005817      0.043157     -0.049324
Pd      8.62579     13.70588     12.98561        -0.011854     -0.016411      0.012868
Pd     12.02901     14.41460      8.74850         0.015650     -0.006683     -0.005373
Pd     12.77053     12.81130     10.62559        -0.028865      0.010648      0.028721
Pd     12.15422      7.10840     12.61304        -0.007312      0.002891      0.000939
Pd     11.21865     14.82557     11.51306        -0.025402      0.027520     -0.031035
Pd     10.08782     12.48675     11.12239        -0.022567      0.041778     -0.006431
Pd     13.48059     12.13597      7.97997         0.002952      0.002282      0.006710
Pd     11.47929     11.55593      6.11230         0.003960      0.007084      0.006667
Pd      7.85300      8.56433      7.54788         0.009695     -0.035404     -0.010684
Pd      8.73958     11.72900      6.88965        -0.004394      0.008573     -0.006497
Pd     10.31174      9.46115      8.14057        -0.007275      0.008467      0.009733
Pd      8.50763     14.43218      6.85276        -0.007805      0.006563     -0.028143
Pd     12.37093      9.03383      6.58351        -0.004043      0.008227      0.008060
Pd      9.74394      9.60755      5.55298         0.001462      0.007822      0.001507
Pd      6.87719      9.46288     12.19070        -0.010412      0.000049     -0.003653
Pd     12.20994      6.68503      7.86462         0.001305      0.012903      0.018509
Pd      5.95644     10.47073      9.73257        -0.014723     -0.017717     -0.004992
Pd      7.57649      7.12486     13.23941        -0.004371      0.023191      0.056246
Ir     11.81124      9.69456     13.05982        -0.048976      0.009782      0.020876
Ir     13.58289      8.98992     11.44061        -0.005731      0.001654      0.011778
Ir      9.42512      8.82446     13.86161        -0.007215     -0.004369      0.071189
Ir     10.56683     10.90773     14.87494        -0.011391     -0.012325      0.056600
Ir      7.29808     12.03534     11.37081        -0.014374     -0.016888      0.007833
Ir     14.69570     10.83234     10.08956        -0.006611      0.040062      0.036192
Ir     12.20314     10.47492      9.65508        -0.027944      0.040796     -0.009742
Ir      8.78531     11.04636     13.02660         0.006257      0.018999     -0.037214
Ir     10.14983      9.84924     11.22936        -0.010092      0.026324     -0.052674
Ir     13.77321     11.36039     12.40632        -0.039402      0.015143      0.049682
Ir     11.66086     12.28830     13.11583        -0.090871     -0.003803     -0.023885
Ir      8.53697     11.06791      9.39024        -0.009729      0.001213     -0.032567
Ir     11.59955      7.96945     10.06284        -0.005817      0.008814      0.021513
Ir      7.23719     12.98866      8.69909         0.017650      0.041034      0.000374
Ir      9.51535      7.00178      9.09548         0.011743     -0.001081      0.043910
Ir      8.07483      8.74171     10.10732        -0.009035      0.009557     -0.014646
Ir     10.76230     12.08897      8.54217         0.004056     -0.002584     -0.030802
Ir      9.57895      7.42594     11.65122        -0.014604      0.059779      0.032835
Ir     13.70221      8.69023      8.80050         0.008617      0.016746      0.010713
