152
# total energy = -1004.29866254 eVH     10.35389      5.87395      7.64558        -0.159961      0.213847      0.653383
H     10.62451     15.10445      7.64558        -0.267660     -0.134348      0.671497
H     10.62451      5.87395     13.33282         0.473045      0.033010     -0.988080
H     10.35389     15.10445     13.33282         0.065016     -0.189587     -0.540338
H      7.64558     10.35389      5.87395         0.408554      0.066989      0.114461
H      7.64558     10.62451     15.10445         0.777652      0.576917     -0.030686
H     13.33282     10.62451      5.87395        -0.450033     -0.014033      0.266158
H     13.33282     10.35389     15.10445        -0.745486     -0.194886      0.016911
H      5.87395      7.64558     10.35389         0.090777      1.905628      0.181440
H     15.10445      7.64558     10.62451        -0.093279      0.507354      0.197088
H      5.87395     13.33282     10.62451         0.211588     -0.688653      0.000865
H     15.10445     13.33282     10.35389         0.229471     -1.466046     -0.367951
H      5.87395     10.35389      7.64558         0.088827      0.060801      0.573913
H     15.10445     10.62451      7.64558        -0.173348      0.926445      1.375475
H      5.87395     10.62451     13.33282        -0.060847      0.459800     -1.306859
H     15.10445     10.35389     13.33282         0.137963     -0.183171     -0.772602
H     10.35389      7.64558      5.87395         0.291314      1.358456      0.159359
H     10.62451      7.64558     15.10445         0.554778      0.808672     -0.079549
H     10.62451     13.33282      5.87395        -0.599083     -0.829304      0.197248
H     10.35389     13.33282     15.10445        -0.170456     -0.534091     -0.312166
H      7.64558      5.87395     10.35389         1.141916     -0.248088     -0.104750
H      7.64558     15.10445     10.62451         0.767326     -0.207424     -0.025199
H     13.33282      5.87395     10.62451        -0.617891      0.116974      0.652472
H     13.33282     15.10445     10.35389        -0.414693     -0.026874     -0.153828
H     12.45634     12.45634     19.01126         0.273878      0.243936     -0.234043
H     19.01126     19.01126     19.01126        -0.266224     -0.272567     -0.215192
H     19.01126     12.45634     12.45634        -0.274863      0.252598      0.232634
H     12.45634     19.01126     12.45634         0.253409     -0.281345      0.229174
C     10.35284      5.61067      6.59456        -0.144192     -0.821749     -0.545271
C     10.62556     15.36773      6.59456         0.092363      0.365918     -0.232886
C     10.62556      5.61067     14.38384        -0.081989     -0.584417      0.674970
C     10.35284     15.36773     14.38384        -0.009352      0.247359      0.535351
C      6.59456     10.35284      5.61067        -0.647113      0.084145     -0.448884
C      6.59456     10.62556     15.36773        -1.017838      0.230497      0.731035
C     14.38384     10.62556      5.61067         0.796189      0.032103     -0.922568
C     14.38384     10.35284     15.36773         0.934938     -0.108939      0.452122
C      5.61067      6.59456     10.35284        -0.880424     -1.064503     -0.446112
C     15.36773      6.59456     10.62556         0.680506      0.066961     -0.261543
C      5.61067     14.38384     10.62556        -0.224348      0.790465      0.009987
C     15.36773     14.38384     10.35284         0.292844      1.429261     -0.020775
C      5.61067     10.35284      6.59456        -0.277427      0.016289     -0.743166
C     15.36773     10.62556      6.59456         0.402682     -0.358900     -0.984687
C      5.61067     10.62556     14.38384        -0.348300     -0.001096      1.113663
C     15.36773     10.35284     14.38384         0.381417     -0.049626      0.871603
C     10.35284      6.59456      5.61067        -0.035106     -1.026201     -0.370834
C     10.62556      6.59456     15.36773         0.063457     -0.693640      0.554739
C     10.62556     14.38384      5.61067         0.130618      0.994030     -0.429655
C     10.35284     14.38384     15.36773        -0.020496      0.876377      0.449240
C      6.59456      5.61067     10.35284        -0.675305     -1.289087      0.112346
C      6.59456     15.36773     10.62556        -0.870424      0.162317      0.100246
C     14.38384      5.61067     10.62556        -0.070661     -0.524629     -0.346505
C     14.38384     15.36773     10.35284         0.129944      0.667221     -0.069845
C     10.40319      3.19606      7.29314         0.007313      0.703098     -0.760311
C     10.35913      4.25547      6.23373         0.011343     -0.541412      0.105384
C      0.08601      7.29314      7.29314        -0.020319     -1.011142     -0.261470
C      0.13007      6.23373      6.23373        -0.048935      0.405823      0.404153
C      0.08601      3.19606      3.19606         0.044246      1.182148      0.215753
C      0.13007      4.25547      4.25547        -0.005501     -0.412556     -0.453746
C     10.40319      7.29314      3.19606        -0.009615     -0.565313      0.216441
C     10.35913      6.23373      4.25547        -0.018882      0.125752     -0.697149
C      7.29314     10.40319      3.19606        -0.394330      0.022071      0.271751
C      6.23373     10.35913      4.25547         0.215989      0.071537     -0.103499
C      7.29314      0.08601      7.29314        -1.160745     -0.080006     -0.368064
C      6.23373      0.13007      6.23373         0.643708     -0.188757      0.358345
C      3.19606      0.08601      3.19606         1.164814     -0.017439      0.296902
C      4.25547      0.13007      4.25547        -0.570637     -0.156884     -0.221459
C      3.19606     10.40319      7.29314         0.550007      0.031531     -0.252587
C      4.25547     10.35913      6.23373        -0.221749      0.080342      0.207463
C      3.19606      7.29314     10.40319         0.307128     -0.572827      0.042371
C      4.25547      6.23373     10.35913        -1.044282      0.028697      0.175136
C      7.29314      7.29314      0.08601        -0.492427     -0.448378     -0.024139
C      6.23373      6.23373      0.13007         0.503697      0.303337      0.036389
C      3.19606      3.19606      0.08601         0.645031      0.440859     -0.024835
C      4.25547      4.25547      0.13007        -0.111032     -0.770800     -0.110948
C      7.29314      3.19606     10.40319        -0.411403      0.473018      0.050733
C      6.23373      4.25547     10.35913         0.601749     -0.737747      0.191509
O     10.43466      3.58206      8.50569         0.054916      0.185389      0.646670
O     10.54374     17.39634      8.50569         0.048966     -0.033814      0.309137
O     10.54374      3.58206     12.47271         0.003971     -0.049351     -0.220068
O     10.43466     17.39634     12.47271        -0.036287     -0.111185     -0.397543
O      8.50569     10.43466      3.58206         0.543689     -0.042630      0.135835
O      8.50569     10.54374     17.39634         0.860043     -0.082622     -0.167448
O     12.47271     10.54374      3.58206        -0.875214      0.137686      0.132999
O     12.47271     10.43466     17.39634        -0.621291      0.033335     -0.178180
O      3.58206      8.50569     10.43466         0.174650      0.673884     -0.026712
O     17.39634      8.50569     10.54374        -0.137613      0.635281      0.021408
O      3.58206     12.47271     10.54374         0.101667     -0.544521      0.056363
O     17.39634     12.47271     10.43466        -0.171610     -0.573988     -0.054396
O      3.58206     10.43466      8.50569         0.087679     -0.040614      0.389508
O     17.39634     10.54374      8.50569         0.054148      0.100734      0.331307
O      3.58206     10.54374     12.47271        -0.019737      0.033910     -0.241846
O     17.39634     10.43466     12.47271        -0.125057     -0.029116     -0.449687
O     10.43466      8.50569      3.58206        -0.036543      0.624022      0.178904
O     10.54374      8.50569     17.39634        -0.093056      0.813502     -0.176201
O     10.54374     12.47271      3.58206         0.113012     -0.952057      0.170871
O     10.43466     12.47271     17.39634         0.030573     -0.549944     -0.092922
O      8.50569      3.58206     10.43466         0.583267      0.152127     -0.052304
O      8.50569     17.39634     10.54374         0.597308     -0.166219      0.014257
O     12.47271      3.58206     10.54374        -0.746373      0.135526      0.008212
O     12.47271     17.39634     10.43466        -0.505638     -0.124263     -0.031520
O     11.90042     11.90042     19.56718        -0.327207     -0.266095      0.243842
O     19.56718     19.56718     19.56718         0.296747      0.325271      0.206675
O     19.56718     11.90042     11.90042         0.346173     -0.277904     -0.252432
O     11.90042     19.56718     11.90042        -0.280016      0.352487     -0.229796
O      9.45224      1.03696      9.45224        -0.028186      0.101655     -0.133744
O      1.03696      9.45224      9.45224         0.058507     -0.019817     -0.120970
O      1.03696      1.03696      1.03696         0.063668      0.101012      0.095520
O      9.45224      9.45224      1.03696        -0.039115     -0.027350      0.086536
Zr     10.48920      2.52580     10.48920        -0.090636     -0.251704      0.161967
Zr     10.48920     18.45260     10.48920         0.026784      0.055943      0.097035
Zr     10.48920     10.48920      2.52580        -0.322814     -0.273535     -0.384371
Zr     10.48920     10.48920     18.45260         0.188419     -0.022878      0.388406
Zr      2.52580     10.48920     10.48920        -0.139347     -0.044698     -0.070117
Zr     18.45260     10.48920     10.48920         0.118626     -0.049971      0.144682
Pd     12.72334      8.31916      9.75287         0.026867     -0.006919      0.031056
Pd      6.68929      9.60386     10.46834        -0.000202     -0.011469     -0.035411
Pd      6.92023     11.77379     11.90415        -0.001547     -0.024634     -0.016557
Pd     12.25866     13.49142      7.24200         0.004423     -0.012529      0.020083
Pd     12.07684      7.91983      7.13580         0.005788     -0.019662      0.007796
Pd      8.51644      7.32439      6.91824        -0.020722      0.007371      0.000661
Pd     11.48036     11.45529      5.66717         0.009395      0.032196     -0.008017
Pd     14.47772      8.88377      7.82009         0.010013     -0.006663      0.007332
Pd      9.83310     11.79792      7.89485        -0.011821      0.000208      0.031256
Pd      7.08283      7.17481     11.96785        -0.006593     -0.031918      0.024742
Pd      6.46503      7.59877      8.50066        -0.014388      0.017644      0.019003
Pd      7.33758      9.26965     13.44214        -0.003849     -0.007923     -0.003897
Pd     11.42487      6.08352      9.21897        -0.041045      0.029900     -0.020028
Pd      9.92386      9.56086      6.38338         0.014409     -0.002801     -0.020677
Pd      9.12022     13.97573      9.34496         0.004644     -0.014343     -0.000803
Pd     10.94737      7.21394     11.53796        -0.063282      0.061410     -0.019482
Pd     10.33150      9.08019      9.05002         0.068832      0.022674      0.029625
Pd      9.32615     11.51182     10.50617         0.017680      0.009526     -0.007863
Pd      8.92512      7.04141      9.60104        -0.022635     -0.004733      0.010762
Pd      9.09260      7.29301     13.62708        -0.016033      0.039959     -0.016014
Pd      9.05829      9.07324     11.41296        -0.021374      0.036639      0.022208
Pd     12.28052     10.60683      8.06768         0.025389     -0.003211      0.003816
Pd      7.11997     12.04758      9.18274        -0.008397     -0.015651      0.003419
Pd      8.03554      9.75320      8.22406        -0.011592     -0.023777      0.021861
Pd     14.04014      6.36132      8.50473        -0.006244     -0.001498     -0.023409
Pd     13.31809      8.41267     12.27688         0.044518     -0.030012      0.001182
Pd      9.15411     11.33905     13.22419        -0.031240      0.015591     -0.008671
Pd     14.03665     12.41023      8.81862        -0.014394     -0.029609      0.012400
Pd     13.17675     10.99146     13.05323        -0.010377      0.010110      0.016624
Pd     14.35100     10.32836     10.47083         0.017884     -0.030593      0.028283
Pd     11.73416     10.54544     10.84466        -0.004274     -0.017518     -0.067953
Pd     11.54337     13.02427      9.72984         0.028174      0.017163     -0.009177
Pd     13.67522     12.95030     11.49292        -0.005395      0.000303     -0.029554
Pd     11.20893     12.73968     12.35431        -0.002608      0.009492     -0.010370
Pd     11.27397     11.52237     14.82992         0.000519     -0.009445      0.021276
Pd     11.03718      9.36910     13.18250        -0.034578      0.001291     -0.011349
Pd      9.44283      9.56156     15.28605         0.060033     -0.001348     -0.005929
Pd      8.81507     13.76216     12.01037        -0.001894      0.001178     -0.005626
