16
# total energy = -106.94528201 eVH      2.38799      1.04721      0.00000         0.000000     -0.014654      0.000000
H      2.38799     10.10249     -0.00000         0.000000      0.014654      0.000000
C      1.21516      8.32605     -0.00000        -0.006449      0.002764     -0.000000
C      3.56081      8.32605      0.00000         0.006449      0.002764      0.000000
C      3.56081      2.82365      0.00000         0.006449     -0.002764      0.000000
C      1.21516      2.82365     -0.00000        -0.006449     -0.002764     -0.000000
N      2.38799      9.04991     -0.00000         0.000000      0.000217      0.000000
N      2.38799      2.09979      0.00000         0.000000     -0.000217      0.000000
O      1.13408      4.05935     -0.00000        -0.000898     -0.005970     -0.000000
O      3.64189      4.05935      0.00000         0.000898     -0.005970      0.000000
O      3.64189      7.09035      0.00000         0.000898      0.005970      0.000000
O      1.13408      7.09035     -0.00000        -0.000898      0.005970     -0.000000
O     -0.00000      9.08583      0.00000         0.000000      0.004299     -0.000000
O     -0.00000      2.06387     -0.00000         0.000000     -0.004299      0.000000
Ir     -0.00000     -0.00000      0.00000         0.000000     -0.000000      0.000000
Ir      2.38799      5.57485      0.00000         0.000000     -0.000000      0.000000
