152
# total energy = -1023.23101472 eVH     10.35389      5.87395      7.64558         0.490998      0.083724      0.714119
H     10.62451     15.10445      7.64558        -0.108996     -0.053098      0.811792
H     10.62451      5.87395     13.33282         0.145347      0.128117     -0.636916
H     10.35389     15.10445     13.33282        -0.171598     -0.121234     -0.541250
H      7.64558     10.35389      5.87395         0.311834     -0.021731      0.192482
H      7.64558     10.62451     15.10445         0.648443     -0.217798     -0.135803
H     13.33282     10.62451      5.87395        -0.769948     -0.153990      0.204022
H     13.33282     10.35389     15.10445        -0.435696     -0.103485     -0.060421
H      5.87395      7.64558     10.35389         0.209664      1.098894     -0.267813
H     15.10445      7.64558     10.62451        -0.175503      0.472199     -0.121345
H      5.87395     13.33282     10.62451         0.161199     -0.422243     -0.063059
H     15.10445     13.33282     10.35389        -0.130134     -0.911178      0.016593
H      5.87395     10.35389      7.64558         0.134650      0.096705      0.460530
H     15.10445     10.62451      7.64558         0.098224     -0.017800      1.068262
H      5.87395     10.62451     13.33282         0.194466     -0.030489     -0.386501
H     15.10445     10.35389     13.33282        -0.121032     -0.053318     -0.542851
H     10.35389      7.64558      5.87395         0.129490      0.881861      0.187928
H     10.62451      7.64558     15.10445        -0.008773      0.527672     -0.164029
H     10.62451     13.33282      5.87395        -0.017267     -0.589027      0.221320
H     10.35389     13.33282     15.10445        -0.292409     -0.889208     -0.126385
H      7.64558      5.87395     10.35389         0.442955      0.096130     -0.050032
H      7.64558     15.10445     10.62451         0.848932     -0.279683      0.033932
H     13.33282      5.87395     10.62451        -0.453714      0.186753     -0.066049
H     13.33282     15.10445     10.35389        -0.659435     -0.098983      0.163900
H     12.45634     12.45634     19.01126         0.252690      0.264605     -0.229754
H     19.01126     19.01126     19.01126        -0.251675     -0.230781     -0.261477
H     19.01126     12.45634     12.45634        -0.235513      0.273021      0.240302
H     12.45634     19.01126     12.45634         0.224892     -0.263637      0.249993
C     10.35284      5.61067      6.59456        -0.194475     -0.359588     -0.029548
C     10.62556     15.36773      6.59456         0.068607      0.372745     -1.221017
C     10.62556      5.61067     14.38384        -0.056272     -0.248638      0.808025
C     10.35284     15.36773     14.38384         0.045436      0.882810      0.414053
C      6.59456     10.35284      5.61067        -0.368799     -0.036026     -0.172125
C      6.59456     10.62556     15.36773        -0.838389      0.197630      0.368560
C     14.38384     10.62556      5.61067         0.461669      0.300258     -0.502039
C     14.38384     10.35284     15.36773         0.777334     -0.112675      0.444927
C      5.61067      6.59456     10.35284        -0.312864     -0.650039      0.428803
C     15.36773      6.59456     10.62556         0.168901     -0.515285      0.081879
C      5.61067     14.38384     10.62556        -0.144169      0.388227     -0.023186
C     15.36773     14.38384     10.35284         0.397168     -0.036653     -0.099741
C      5.61067     10.35284      6.59456        -0.258061     -0.020049     -0.783240
C     15.36773     10.62556      6.59456         0.605740     -0.270375     -1.341599
C      5.61067     10.62556     14.38384        -0.341436      0.000034      0.428794
C     15.36773     10.35284     14.38384         0.492527     -0.165019      1.127822
C     10.35284      6.59456      5.61067        -0.167301     -0.488162     -0.432579
C     10.62556      6.59456     15.36773         0.055426     -0.631349      0.270526
C     10.62556     14.38384      5.61067         0.102046      0.999995     -0.493761
C     10.35284     14.38384     15.36773         0.253222      0.597762      0.533565
C      6.59456      5.61067     10.35284        -0.105938     -0.815119      0.074614
C      6.59456     15.36773     10.62556        -1.523679      0.412604      0.108907
C     14.38384      5.61067     10.62556         0.645245     -0.274964     -0.017093
C     14.38384     15.36773     10.35284        -0.428073      0.681124     -0.312193
C     10.40319      3.19606      7.29314         0.006844      0.837073     -0.295216
C     10.35913      4.25547      6.23373        -0.054303     -0.466667      0.506129
C      0.08601      7.29314      7.29314        -0.006810     -0.259528     -0.512550
C      0.13007      6.23373      6.23373         0.031383      0.145937      0.208866
C      0.08601      3.19606      3.19606        -0.011099      0.635306      0.196442
C      0.13007      4.25547      4.25547        -0.092905     -0.179974     -0.198030
C     10.40319      7.29314      3.19606        -0.008033     -0.646865      0.563002
C     10.35913      6.23373      4.25547        -0.044039      0.272014     -0.611655
C      7.29314     10.40319      3.19606        -0.321451      0.027133      0.939763
C      6.23373     10.35913      4.25547         0.172397      0.031537     -0.126241
C      7.29314      0.08601      7.29314        -0.307592     -0.037075     -0.299128
C      6.23373      0.13007      6.23373         0.331577     -0.051039      0.323397
C      3.19606      0.08601      3.19606         0.526919     -0.032697      0.706778
C      4.25547      0.13007      4.25547        -0.091657     -0.030817     -0.373253
C      3.19606     10.40319      7.29314         0.722827      0.001649     -0.406711
C      4.25547     10.35913      6.23373        -0.156736      0.030410      0.084373
C      3.19606      7.29314     10.40319         0.675902     -1.284071     -0.010254
C      4.25547      6.23373     10.35913        -0.653851      0.916209      0.082834
C      7.29314      7.29314      0.08601        -0.684685     -0.181785     -0.018782
C      6.23373      6.23373      0.13007         0.216415      0.204264      0.017428
C      3.19606      3.19606      0.08601         0.268697      0.295000     -0.021027
C      4.25547      4.25547      0.13007        -0.072065     -0.038185     -0.002400
C      7.29314      3.19606     10.40319        -0.362009      1.009669      0.016706
C      6.23373      4.25547     10.35913         1.064103     -0.026554      0.012869
O     10.43466      3.58206      8.50569        -0.043021      0.048702      0.385873
O     10.54374     17.39634      8.50569        -0.040399     -0.170121      0.586533
O     10.54374      3.58206     12.47271         0.050302      0.065317     -0.315386
O     10.43466     17.39634     12.47271        -0.009079     -0.138832     -0.630975
O      8.50569     10.43466      3.58206         0.348869     -0.028560     -0.030093
O      8.50569     10.54374     17.39634         0.471495      0.045229     -0.145516
O     12.47271     10.54374      3.58206        -0.480741      0.012845      0.083104
O     12.47271     10.43466     17.39634        -0.808999      0.003068     -0.195587
O      3.58206      8.50569     10.43466         0.110261      1.043074      0.016593
O     17.39634      8.50569     10.54374        -0.030644      0.310952      0.074590
O      3.58206     12.47271     10.54374         0.072826     -0.461593      0.051173
O     17.39634     12.47271     10.43466        -0.175850     -0.897149      0.057105
O      3.58206     10.43466      8.50569        -0.065111     -0.068600      0.323757
O     17.39634     10.54374      8.50569        -0.130691      0.042268      0.462049
O      3.58206     10.54374     12.47271         0.091116     -0.023703     -0.641000
O     17.39634     10.43466     12.47271        -0.184561      0.055380     -0.786252
O     10.43466      8.50569      3.58206         0.027883      0.645768      0.156419
O     10.54374      8.50569     17.39634         0.062016      0.443946     -0.082860
O     10.54374     12.47271      3.58206        -0.010437     -0.725529      0.229938
O     10.43466     12.47271     17.39634         0.034458     -0.847373     -0.240402
O      8.50569      3.58206     10.43466         0.440700      0.021125     -0.039983
O      8.50569     17.39634     10.54374         0.692914     -0.263108     -0.063144
O     12.47271      3.58206     10.54374        -0.462047      0.152964      0.042376
O     12.47271     17.39634     10.43466        -0.555682     -0.021890     -0.006360
O     11.90042     11.90042     19.56718        -0.294068     -0.313228      0.256219
O     19.56718     19.56718     19.56718         0.283360      0.263376      0.311422
O     19.56718     11.90042     11.90042         0.260358     -0.321514     -0.243795
O     11.90042     19.56718     11.90042        -0.271804      0.278455     -0.265926
O      9.45224      1.03696      9.45224        -0.082548      0.042246     -0.070023
O      1.03696      9.45224      9.45224         0.014143     -0.169440     -0.097729
O      1.03696      1.03696      1.03696         0.002292      0.070096      0.179982
O      9.45224      9.45224      1.03696        -0.062352     -0.100560      0.107296
Zr     10.48920      2.52580     10.48920         0.002183     -0.094757     -0.051431
Zr     10.48920     18.45260     10.48920         0.132498      0.357553     -0.000379
Zr     10.48920     10.48920      2.52580         0.012989     -0.030383     -0.385265
Zr     10.48920     10.48920     18.45260        -0.156368     -0.056256      0.373026
Zr      2.52580     10.48920     10.48920        -0.330215      0.243168     -0.127257
Zr     18.45260     10.48920     10.48920         0.278818     -0.014313     -0.282779
Pd      8.99201     10.12951     13.31100        -0.057969     -0.029419      0.016805
Pd     10.68894      9.70679     10.85846        -0.020073     -0.030013     -0.085478
Pd     13.73007      8.39226     12.57595        -0.027293      0.031236     -0.003585
Pd     11.00884     10.91442     14.96487        -0.030744     -0.021917      0.009645
Pd     12.90741     11.01930     12.95678         0.022792      0.027171      0.046638
Pd     15.10374     11.10141     11.31373        -0.015575     -0.036902     -0.001973
Pd      6.59898      7.70854     12.31928        -0.010201      0.028292      0.021531
Pd      9.31630      7.29477      9.87003        -0.003676     -0.008019     -0.022485
Pd      9.22625      7.47513     12.63259         0.000430     -0.011952     -0.015401
Pd     11.63491      7.15659     11.42291        -0.003961      0.008428     -0.013674
Pd     11.69901      7.99891      8.91089         0.009311     -0.036879     -0.038642
Pd      7.38049     11.77923     11.77942        -0.016940     -0.009694     -0.016233
Pd      9.19943     14.76644      9.44032         0.010269     -0.032551      0.001782
Pd      8.40800     12.55567     14.25325        -0.023240     -0.008538      0.001125
Pd     14.09224     14.25321      8.31364         0.004138     -0.008791      0.001720
Pd     11.49768     13.65018      8.72474         0.019159     -0.012698      0.019096
Pd     14.16323     11.69432      8.89099        -0.006683     -0.005742     -0.003105
Pd      8.72336     14.03623     12.06509         0.001282     -0.010933      0.005339
Pd     12.27456     13.49830     14.14062        -0.008753      0.022342     -0.006987
Pd     11.34500     14.43062     11.43980         0.010104     -0.038045      0.008477
Pd     14.08148     13.60056     12.27111        -0.001281     -0.016052     -0.007387
Pd     12.42675     12.17168     10.72373        -0.010865     -0.052071      0.030372
Pd     12.75241     12.52182      6.68069        -0.003735      0.003335      0.001759
Pd     13.93274      9.00380      7.99955         0.011403     -0.012366     -0.034028
Pd      6.93910      8.49888      8.76194         0.003033     -0.007724     -0.016001
Pd      5.62489     10.10643     10.71789         0.003184     -0.003370     -0.056246
Pd      9.39711      9.46689      8.11988         0.002007     -0.030436     -0.058508
Pd      8.57061      7.03141      7.23983        -0.018644     -0.030366     -0.011490
Pd      9.76449     12.13392     10.34999        -0.001805     -0.020904      0.038632
Pd     11.63817     10.81665      8.49655        -0.014588     -0.018009     -0.038875
Pd     11.58233      9.09778      6.47462         0.019238     -0.006338     -0.025024
Pd     10.08420     11.34923      6.32547         0.018846     -0.015912     -0.039529
Ir     11.29576      8.99992     13.22342        -0.023814      0.021197     -0.038386
Ir     13.21958      9.62246     10.38840        -0.001478     -0.022320      0.004576
Ir     10.55638     12.22677     12.73178        -0.005871     -0.027717     -0.008493
Ir      7.60051     11.00579      9.25250         0.031356     -0.011843     -0.017877
Ir      8.84211     12.61781      8.07535         0.014400      0.006179      0.009667
Ir      8.19383      9.30877     11.00610        -0.014405     -0.001471     -0.010254
