36
# total energy = -245.37990744 eVH      4.91422      4.31542      7.50000         0.005629     -0.009237      0.000000
H      4.91422      8.51168      7.50000         0.005234      0.009696     -0.000000
H      1.28015      6.41355      7.50000        -0.011032     -0.000225      0.000000
H      6.19437      2.09813      7.50000        -0.005629      0.009237      0.000000
H      6.19437     -2.09813      7.50000        -0.005234     -0.009696     -0.000000
H      9.82844      0.00000      7.50000         0.011032      0.000225      0.000000
C      6.73547     -1.16092      7.50000         0.009852      0.008417     -0.000000
C      8.74624     -0.00000      7.50000        -0.012183     -0.000996     -0.000000
C      6.73547      1.16092      7.50000         0.006171     -0.014012      0.000000
C      4.37312      7.57447      7.50000        -0.009852     -0.008417     -0.000000
C      2.36235      6.41355      7.50000         0.012183      0.000996     -0.000000
C      4.37312      5.25263      7.50000        -0.006171      0.014012      0.000000
C      0.00000      1.38584      7.50000        -0.000258      0.008476      0.000000
C      9.90842      5.72063      7.50000        -0.007196     -0.004557     -0.000000
C      1.20017     -0.69292      7.50000         0.007481     -0.003970      0.000000
C      0.00000     11.44126      7.50000         0.000258     -0.008476     -0.000000
C      1.20017      0.69292      7.50000         0.007196      0.004557      0.000000
C      9.90842     -5.72063      7.50000        -0.007481      0.003970     -0.000000
N      6.02819     -0.00013      7.50000         0.044988      0.003392      0.000000
N      8.09461     -1.19305      7.50000        -0.024437      0.041220      0.000000
N      8.09450      1.19298      7.50000        -0.024571     -0.037497      0.000000
N      5.08040      6.41368      7.50000        -0.044988     -0.003392      0.000000
N      3.01398      7.60660      7.50000         0.024437     -0.041220      0.000000
N      3.01409      5.22057      7.50000         0.024571      0.037497     -0.000000
O      0.00000      2.74013      7.50000        -0.000175     -0.079759     -0.000000
O      8.73558      5.04349      7.50000         0.069530      0.039915     -0.000000
O      2.37302     -1.37006      7.50000        -0.069192      0.039799      0.000000
O      0.00000     10.08697      7.50000         0.000175      0.079759     -0.000000
O      2.37302      1.37006      7.50000        -0.069530     -0.039915      0.000000
O      8.73558     -5.04349      7.50000         0.069192     -0.039799      0.000000
Ir      4.02120      0.00019      7.50000         0.018419      0.001048      0.000000
Ir      9.09783     -2.93118      7.50000        -0.009344      0.014868      0.000000
Ir      9.09816      2.93099      7.50000        -0.008876     -0.016039      0.000000
Ir      7.08739      6.41336      7.50000        -0.018419     -0.001048      0.000000
Ir      2.01077      9.34473      7.50000         0.009344     -0.014868      0.000000
Ir      2.01043      3.48256      7.50000         0.008876      0.016039     -0.000000
