26
# total energy = -182.09280529 eVH      3.19974      7.07459      0.00000        -0.002322      0.013468      0.000000
H      6.04260      2.16775      0.00000         0.002322     -0.013468      0.000000
H      2.16775      3.19974      0.00000        -0.013468     -0.002322      0.000000
H      7.07459      6.04260     -0.00000         0.013468      0.002322     -0.000000
H      6.04260      7.07459     -0.00000         0.002322      0.013468     -0.000000
H      3.19974      2.16775     -0.00000        -0.002322     -0.013468     -0.000000
H      7.07459      3.19974     -0.00000         0.013468     -0.002322     -0.000000
H      2.16775      6.04260      0.00000        -0.013468      0.002322      0.000000
C      8.51157      1.75990     -0.00000        -0.006793     -0.004197     -0.000000
C      0.73077      7.48244     -0.00000         0.006793      0.004197      0.000000
C      7.48244      8.51157     -0.00000         0.004197     -0.006793      0.000000
C      1.75990      0.73077     -0.00000        -0.004197      0.006793     -0.000000
C      0.73077      1.75990      0.00000         0.006793     -0.004197      0.000000
C      8.51157      7.48244      0.00000        -0.006793      0.004197     -0.000000
C      1.75990      8.51157      0.00000        -0.004197     -0.006793     -0.000000
C      7.48244      0.73077      0.00000         0.004197      0.006793      0.000000
N      8.07732      3.05883     -0.00000        -0.024163     -0.019790      0.000000
N      1.16502      6.18351      0.00000         0.024163      0.019790      0.000000
N      6.18351      8.07732      0.00000         0.019790     -0.024163      0.000000
N      3.05883      1.16502     -0.00000        -0.019790      0.024163     -0.000000
N      1.16502      3.05883     -0.00000         0.024163     -0.019790      0.000000
N      8.07732      6.18351     -0.00000        -0.024163      0.019790      0.000000
N      3.05883      8.07732     -0.00000        -0.019790     -0.024163      0.000000
N      6.18351      1.16502      0.00000         0.019790      0.024163      0.000000
Ir     -0.00000      4.62117      0.00000         0.000000     -0.000000      0.000000
Ir      4.62117      0.00000      0.00000         0.000000      0.000000      0.000000
