152
# total energy = -1003.73400412 eVH     10.35389      5.87395      7.64558        -0.167869      0.194325      0.712291
H     10.62451     15.10445      7.64558        -0.385973     -0.110225      0.882434
H     10.62451      5.87395     13.33282         0.326627      0.015132     -0.833143
H     10.35389     15.10445     13.33282         0.033777     -0.171675     -0.527829
H      7.64558     10.35389      5.87395         0.540088      0.077112     -0.015162
H      7.64558     10.62451     15.10445         0.720042      0.543968     -0.062756
H     13.33282     10.62451      5.87395        -0.554028     -0.139610      0.321301
H     13.33282     10.35389     15.10445        -0.606634     -0.092788     -0.057966
H      5.87395      7.64558     10.35389         0.066527      1.642445      0.221269
H     15.10445      7.64558     10.62451        -0.062198      0.606200      0.011793
H      5.87395     13.33282     10.62451         0.208198     -0.826218      0.131550
H     15.10445     13.33282     10.35389         0.014023     -1.165570      0.034235
H      5.87395     10.35389      7.64558         0.005262      0.084785      0.701223
H     15.10445     10.62451      7.64558        -0.127615      0.660396      1.318556
H      5.87395     10.62451     13.33282        -0.042528      0.443874     -1.388569
H     15.10445     10.35389     13.33282         0.584523      0.037121     -1.057288
H     10.35389      7.64558      5.87395         0.241851      1.488463      0.020124
H     10.62451      7.64558     15.10445         0.544136      0.982369     -0.078167
H     10.62451     13.33282      5.87395        -0.599867     -0.746382      0.172858
H     10.35389     13.33282     15.10445        -0.058625     -0.437635     -0.203794
H      7.64558      5.87395     10.35389         1.085389     -0.198015     -0.319811
H      7.64558     15.10445     10.62451         0.733537     -0.189122      0.056577
H     13.33282      5.87395     10.62451        -0.825991      0.093050      0.484604
H     13.33282     15.10445     10.35389        -0.322050     -0.086974     -0.037995
H     12.45634     12.45634     19.01126         0.268539      0.238281     -0.244648
H     19.01126     19.01126     19.01126        -0.267446     -0.263687     -0.223900
H     19.01126     12.45634     12.45634        -0.269497      0.254669      0.236537
H     12.45634     19.01126     12.45634         0.257792     -0.275408      0.230494
C     10.35284      5.61067      6.59456        -0.135908     -0.884990     -0.756837
C     10.62556     15.36773      6.59456         0.209532      0.337498     -0.435775
C     10.62556      5.61067     14.38384        -0.306146     -0.701567      0.647196
C     10.35284     15.36773     14.38384         0.000430      0.225221      0.580880
C      6.59456     10.35284      5.61067        -0.816488      0.076356     -0.488217
C      6.59456     10.62556     15.36773        -0.752418      0.202288      0.783557
C     14.38384     10.62556      5.61067         0.879295      0.027875     -0.857298
C     14.38384     10.35284     15.36773         1.047779      0.000222      0.715112
C      5.61067      6.59456     10.35284        -0.713643     -0.715799     -0.371342
C     15.36773      6.59456     10.62556         0.716845      0.184666     -0.177299
C      5.61067     14.38384     10.62556        -0.334731      0.943507     -0.071615
C     15.36773     14.38384     10.35284         0.448371      1.292577     -0.264644
C      5.61067     10.35284      6.59456        -0.323541     -0.002451     -0.850329
C     15.36773     10.62556      6.59456         0.297842     -0.272867     -0.888549
C      5.61067     10.62556     14.38384        -0.401656     -0.085403      1.155713
C     15.36773     10.35284     14.38384         0.089527     -0.006421      1.395419
C     10.35284      6.59456      5.61067        -0.097742     -1.223729     -0.411489
C     10.62556      6.59456     15.36773        -0.119102     -0.859293      0.689054
C     10.62556     14.38384      5.61067         0.017047      1.016664     -0.660267
C     10.35284     14.38384     15.36773        -0.021599      0.487644      0.284527
C      6.59456      5.61067     10.35284        -0.637399     -1.237865      0.193465
C      6.59456     15.36773     10.62556        -0.796557      0.268207      0.042447
C     14.38384      5.61067     10.62556         0.084352     -0.567039     -0.265234
C     14.38384     15.36773     10.35284         0.096457      0.569475     -0.034410
C     10.40319      3.19606      7.29314        -0.001377      0.381626     -1.006200
C     10.35913      4.25547      6.23373        -0.014487     -0.469179      0.120529
C      0.08601      7.29314      7.29314        -0.046917     -0.924536     -0.268529
C      0.13007      6.23373      6.23373         0.036284      0.380177      0.581340
C      0.08601      3.19606      3.19606         0.011283      1.008417      0.291321
C      0.13007      4.25547      4.25547         0.031455     -0.515479     -0.365205
C     10.40319      7.29314      3.19606        -0.013202     -0.538720      0.204010
C     10.35913      6.23373      4.25547        -0.008746      0.204443     -0.614267
C      7.29314     10.40319      3.19606        -0.324285      0.012258      0.195974
C      6.23373     10.35913      4.25547         0.204223     -0.004362     -0.265983
C      7.29314      0.08601      7.29314        -0.969934     -0.083220     -0.363355
C      6.23373      0.13007      6.23373         0.629482     -0.201012      0.326766
C      3.19606      0.08601      3.19606         1.052758     -0.037586      0.288633
C      4.25547      0.13007      4.25547        -0.560472     -0.157120     -0.351997
C      3.19606     10.40319      7.29314         0.461073      0.016834     -0.228598
C      4.25547     10.35913      6.23373        -0.232677      0.002874      0.146339
C      3.19606      7.29314     10.40319         0.272589     -0.457023      0.045670
C      4.25547      6.23373     10.35913        -0.947502     -0.068573      0.099559
C      7.29314      7.29314      0.08601        -0.463915     -0.389197     -0.023720
C      6.23373      6.23373      0.13007         0.590234      0.234633      0.069885
C      3.19606      3.19606      0.08601         0.777597      0.460600     -0.015781
C      4.25547      4.25547      0.13007        -0.138920     -0.910965     -0.048924
C      7.29314      3.19606     10.40319        -0.369099      0.403781      0.037537
C      6.23373      4.25547     10.35913         0.410961     -0.678025      0.132277
O     10.43466      3.58206      8.50569         0.091827      0.249400      0.831659
O     10.54374     17.39634      8.50569         0.053874     -0.061778      0.325700
O     10.54374      3.58206     12.47271         0.013466     -0.001089     -0.322649
O     10.43466     17.39634     12.47271        -0.034136     -0.113308     -0.377697
O      8.50569     10.43466      3.58206         0.521811     -0.034772      0.166681
O      8.50569     10.54374     17.39634         0.824314     -0.075134     -0.214237
O     12.47271     10.54374      3.58206        -0.847918      0.153271      0.183867
O     12.47271     10.43466     17.39634        -0.560060      0.018003     -0.199056
O      3.58206      8.50569     10.43466         0.186119      0.593926     -0.045973
O     17.39634      8.50569     10.54374        -0.148525      0.577783      0.034976
O      3.58206     12.47271     10.54374         0.099016     -0.521701      0.039922
O     17.39634     12.47271     10.43466        -0.173169     -0.524357     -0.049597
O      3.58206     10.43466      8.50569         0.120656     -0.025830      0.356026
O     17.39634     10.54374      8.50569        -0.001592      0.103376      0.355333
O      3.58206     10.54374     12.47271         0.021974      0.045867     -0.303340
O     17.39634     10.43466     12.47271        -0.140493     -0.028877     -0.374179
O     10.43466      8.50569      3.58206        -0.037240      0.624437      0.196361
O     10.54374      8.50569     17.39634        -0.072922      0.789145     -0.173448
O     10.54374     12.47271      3.58206         0.163981     -0.847303      0.206435
O     10.43466     12.47271     17.39634        -0.025343     -0.325583      0.010056
O      8.50569      3.58206     10.43466         0.563330      0.145785     -0.054516
O      8.50569     17.39634     10.54374         0.588278     -0.186387      0.009821
O     12.47271      3.58206     10.54374        -0.749176      0.106455      0.017932
O     12.47271     17.39634     10.43466        -0.519056     -0.140312     -0.035886
O     11.90042     11.90042     19.56718        -0.309665     -0.249219      0.255628
O     19.56718     19.56718     19.56718         0.307552      0.321525      0.226609
O     19.56718     11.90042     11.90042         0.344794     -0.273159     -0.255366
O     11.90042     19.56718     11.90042        -0.290085      0.355147     -0.234688
O      9.45224      1.03696      9.45224        -0.016141      0.111372     -0.117583
O      1.03696      9.45224      9.45224         0.063509     -0.006385     -0.116478
O      1.03696      1.03696      1.03696         0.054177      0.103445      0.095090
O      9.45224      9.45224      1.03696        -0.029419     -0.013531      0.099680
Zr     10.48920      2.52580     10.48920        -0.156346     -0.308851      0.205616
Zr     10.48920     18.45260     10.48920         0.030594      0.050147      0.079542
Zr     10.48920     10.48920      2.52580        -0.247254     -0.221145     -0.367685
Zr     10.48920     10.48920     18.45260         0.085663      0.011158      0.325377
Zr      2.52580     10.48920     10.48920        -0.124473     -0.128965     -0.024623
Zr     18.45260     10.48920     10.48920         0.076527     -0.070163      0.084799
Pd     12.47483      8.25343      9.93657        -0.035057     -0.022150      0.046368
Pd      7.17822      9.50076     10.53353        -0.095584      0.028795      0.037778
Pd      6.85148     11.71013     11.91791         0.062538      0.013355      0.177902
Pd     12.17346     13.64804      7.51797         0.055799      0.003818     -0.055035
Pd     11.80039      7.89597      7.38418         0.104105     -0.050744     -0.121294
Pd      8.69877      7.50480      7.07136         0.032530      0.011870      0.001489
Pd     11.70426     11.65141      5.79212        -0.064845     -0.034992     -0.017759
Pd     14.21134      8.91145      7.72069         0.094596      0.019733      0.066927
Pd      9.82590     11.95295      7.82286        -0.024307      0.008606      0.095818
Pd      7.09681      7.03626     12.04303         0.052499      0.029706     -0.033008
Pd      6.60290      7.77211      8.57200         0.017805     -0.023431     -0.038340
Pd      7.26078      9.19458     13.45625        -0.025100     -0.017660      0.030116
Pd     11.37792      5.87400      9.28392        -0.008521      0.055464     -0.060189
Pd     10.10320      9.71636      6.36214        -0.058444      0.014712      0.007216
Pd      9.01232     13.97008      9.33591        -0.040117      0.040927     -0.004267
Pd     11.02855      6.79574     11.68464        -0.119179      0.099272     -0.073642
Pd     10.18772      9.27974      9.12260        -0.167043     -0.126039     -0.134811
Pd      9.17703     11.43329     10.40594        -0.088124     -0.012304     -0.008383
Pd      9.02264      7.10048      9.79099        -0.037401      0.039047     -0.030916
Pd      8.79028      7.06535     14.04045         0.136322      0.103329     -0.081456
Pd      9.34139      8.82589     11.81326        -0.068485      0.075588     -0.031272
Pd     12.24186     10.73218      8.25684         0.043933     -0.083096     -0.045043
Pd      6.89877     12.13267      9.24056         0.099989     -0.067163     -0.025319
Pd      7.98225     10.01577      8.04237         0.122158     -0.050625      0.012702
Pd     13.94000      6.42530      8.53951        -0.065913      0.104323      0.071077
Pd     13.50036      7.63085     12.30468         0.033347      0.101047     -0.055795
Pd      9.20555     11.17865     13.10704         0.053357      0.025162      0.025416
Pd     14.16249     12.49222      8.73968        -0.056821      0.025585     -0.019232
Pd     13.40630     10.31203     12.72174        -0.134558      0.052483      0.000114
Pd     14.21055     10.16843     10.13483        -0.029084      0.056096      0.106699
Pd     11.46928     10.46898     11.13183         0.146326     -0.008786      0.113151
Pd     11.38964     12.99469      9.91464         0.010146     -0.089436     -0.101680
Pd     13.58256     12.51563     11.35715         0.064611     -0.012943      0.064305
Pd     11.27750     12.79865     12.49787        -0.045979     -0.079463     -0.001093
Pd     11.47110     11.20406     14.57981         0.124075      0.073219     -0.009770
Pd     11.36656      8.78702     13.43019         0.004836      0.024700     -0.063628
Pd      9.48667      9.49997     15.15948        -0.067198      0.081160      0.001249
Pd      8.80411     13.59796     12.01126         0.087402     -0.015865     -0.112672
