152
# total energy = -1092.09017097 eVH     10.35389      5.87395      7.64558         0.854095     -1.007180      1.586603
H     10.62451     15.10445      7.64558        -0.767708      1.093288      1.871240
H     10.62451      5.87395     13.33282         0.659834     -0.365450     -1.936897
H     10.35389     15.10445     13.33282        -0.737545      0.503691     -1.874079
H      7.64558     10.35389      5.87395         0.380995     -0.104553      0.009513
H      7.64558     10.62451     15.10445         0.527413     -0.188923      0.102297
H     13.33282     10.62451      5.87395        -0.474067      0.013195      0.101214
H     13.33282     10.35389     15.10445        -0.598991      0.209056      0.041591
H      5.87395      7.64558     10.35389         0.031391      1.270949     -0.052324
H     15.10445      7.64558     10.62451        -0.029226      0.622945     -0.011972
H      5.87395     13.33282     10.62451        -0.072641     -0.613739     -0.002477
H     15.10445     13.33282     10.35389         0.169225     -1.475191      0.133135
H      5.87395     10.35389      7.64558        -0.233839     -0.054872      0.024122
H     15.10445     10.62451      7.64558         0.221950      0.142519      0.182885
H      5.87395     10.62451     13.33282        -0.155477      0.248582     -0.143175
H     15.10445     10.35389     13.33282         0.009947     -0.216197     -0.201601
H     10.35389      7.64558      5.87395        -0.245608      0.651503     -0.118462
H     10.62451      7.64558     15.10445         0.163877      0.540070      0.327596
H     10.62451     13.33282      5.87395        -0.163353     -1.024541     -0.150613
H     10.35389     13.33282     15.10445        -0.183651     -0.788785      0.266837
H      7.64558      5.87395     10.35389         0.472219     -0.054483     -0.118731
H      7.64558     15.10445     10.62451         0.707947     -0.013276     -0.056309
H     13.33282      5.87395     10.62451        -0.594984      0.027734      0.112505
H     13.33282     15.10445     10.35389        -0.529834      0.183227     -0.030301
H     12.45634     12.45634     19.01126         0.257327      0.251004     -0.243927
H     19.01126     19.01126     19.01126        -0.257658     -0.248119     -0.245194
H     19.01126     12.45634     12.45634        -0.251932      0.268190      0.235839
H     12.45634     19.01126     12.45634         0.255170     -0.270179      0.231033
C     10.35284      5.61067      6.59456        -0.505445     -0.021255     -1.937037
C     10.62556     15.36773      6.59456         0.414602     -0.085002     -2.027608
C     10.62556      5.61067     14.38384        -0.398633     -0.116260      1.962610
C     10.35284     15.36773     14.38384         0.333985      0.222196      1.943939
C      6.59456     10.35284      5.61067        -0.610143     -0.013392     -0.221241
C      6.59456     10.62556     15.36773        -0.904344     -0.067384      0.302624
C     14.38384     10.62556      5.61067         0.718960      0.010130     -0.148953
C     14.38384     10.35284     15.36773         0.817164     -0.033689      0.291785
C      5.61067      6.59456     10.35284        -0.103728     -0.646159      0.123750
C     15.36773      6.59456     10.62556         0.204450     -1.001090     -0.012478
C      5.61067     14.38384     10.62556        -0.297117      1.056572      0.011069
C     15.36773     14.38384     10.35284         0.220378      1.067362      0.007013
C      5.61067     10.35284      6.59456        -0.709261      0.067933     -1.935120
C     15.36773     10.62556      6.59456         0.649407      0.020116     -1.898427
C      5.61067     10.62556     14.38384        -0.776968      0.000753      1.975260
C     15.36773     10.35284     14.38384         0.613623     -0.091991      1.534430
C     10.35284      6.59456      5.61067         0.027190     -1.578035     -0.812206
C     10.62556      6.59456     15.36773         0.026989     -1.705031      1.092551
C     10.62556     14.38384      5.61067         0.064996      1.671711     -0.834016
C     10.35284     14.38384     15.36773        -0.077211      1.783849      1.006969
C      6.59456      5.61067     10.35284        -0.263085     -0.841836     -0.175445
C      6.59456     15.36773     10.62556        -1.591866      0.654017      0.029030
C     14.38384      5.61067     10.62556         1.560554     -0.647259     -0.043135
C     14.38384     15.36773     10.35284         0.314043      1.056254     -0.040828
C     10.40319      3.19606      7.29314        -0.007448      0.577873     -0.363968
C     10.35913      4.25547      6.23373         0.067201     -0.843230      0.654693
C      0.08601      7.29314      7.29314        -0.003986     -0.521977     -0.341421
C      0.13007      6.23373      6.23373        -0.079108      0.852758      0.661590
C      0.08601      3.19606      3.19606        -0.047724      0.524753      0.355293
C      0.13007      4.25547      4.25547        -0.018772     -0.976118     -0.487007
C     10.40319      7.29314      3.19606         0.052120     -0.494848      0.348184
C     10.35913      6.23373      4.25547         0.053315      0.758767     -0.561731
C      7.29314     10.40319      3.19606        -0.358310      0.015988      0.709549
C      6.23373     10.35913      4.25547         0.284033     -0.037094     -0.390338
C      7.29314      0.08601      7.29314        -0.361175      0.027702     -0.437970
C      6.23373      0.13007      6.23373         0.140732      0.037258      0.489236
C      3.19606      0.08601      3.19606         0.313301      0.012183      0.785143
C      4.25547      0.13007      4.25547        -0.340209      0.105195     -0.397548
C      3.19606     10.40319      7.29314         0.372994      0.005458     -0.623199
C      4.25547     10.35913      6.23373        -0.302094      0.008715      0.616345
C      3.19606      7.29314     10.40319         0.274648     -0.471984      0.002725
C      4.25547      6.23373     10.35913        -0.749415      0.332838      0.001870
C      7.29314      7.29314      0.08601        -0.407204     -0.212356     -0.001158
C      6.23373      6.23373      0.13007         0.080983      0.313847     -0.034340
C      3.19606      3.19606      0.08601         0.386354      0.211273     -0.018409
C      4.25547      4.25547      0.13007        -0.079850     -0.259244     -0.020771
C      7.29314      3.19606     10.40319        -0.339842      0.591585     -0.015465
C      6.23373      4.25547     10.35913         0.714402     -0.583444      0.033421
O     10.43466      3.58206      8.50569        -0.009489      0.178874      0.358683
O     10.54374     17.39634      8.50569         0.005964     -0.193746      0.342789
O     10.54374      3.58206     12.47271         0.072615      0.193459     -0.347369
O     10.43466     17.39634     12.47271        -0.097722     -0.210173     -0.342839
O      8.50569     10.43466      3.58206         0.432243     -0.020694      0.089783
O      8.50569     10.54374     17.39634         0.487711      0.053626     -0.144710
O     12.47271     10.54374      3.58206        -0.363866      0.012788      0.055623
O     12.47271     10.43466     17.39634        -0.464126     -0.052675     -0.120554
O      3.58206      8.50569     10.43466         0.127592      0.481658     -0.037835
O     17.39634      8.50569     10.54374        -0.115900      0.440572      0.037529
O      3.58206     12.47271     10.54374         0.088218     -0.400928      0.051567
O     17.39634     12.47271     10.43466        -0.217549     -0.609949      0.006478
O      3.58206     10.43466      8.50569         0.232122     -0.025502      0.559857
O     17.39634     10.54374      8.50569        -0.159952     -0.003828      0.479108
O      3.58206     10.54374     12.47271         0.363391     -0.013933     -0.631144
O     17.39634     10.43466     12.47271        -0.229516     -0.002377     -0.635112
O     10.43466      8.50569      3.58206         0.032239      0.542885      0.274245
O     10.54374      8.50569     17.39634         0.074069      0.575803     -0.287932
O     10.54374     12.47271      3.58206         0.011063     -0.607222      0.276533
O     10.43466     12.47271     17.39634        -0.056743     -0.605363     -0.292665
O      8.50569      3.58206     10.43466         0.540395      0.141778     -0.035928
O      8.50569     17.39634     10.54374         0.511246     -0.173359      0.036318
O     12.47271      3.58206     10.54374        -0.513131      0.182363      0.003969
O     12.47271     17.39634     10.43466        -0.522588     -0.171171     -0.023824
O     11.90042     11.90042     19.56718        -0.292308     -0.300950      0.261788
O     19.56718     19.56718     19.56718         0.303824      0.289391      0.267174
O     19.56718     11.90042     11.90042         0.304416     -0.324206     -0.258617
O     11.90042     19.56718     11.90042        -0.288627      0.317167     -0.245608
O      9.45224      1.03696      9.45224        -0.045281      0.035751     -0.086650
O      1.03696      9.45224      9.45224         0.057456     -0.043489     -0.079775
O      1.03696      1.03696      1.03696         0.076481      0.034977      0.106122
O      9.45224      9.45224      1.03696        -0.050549     -0.057797      0.102663
Zr     10.48920      2.52580     10.48920        -0.129259     -0.065282      0.010217
Zr     10.48920     18.45260     10.48920         0.097412      0.096558     -0.035103
Zr     10.48920     10.48920      2.52580        -0.043542      0.039735     -0.234901
Zr     10.48920     10.48920     18.45260        -0.006251     -0.001139      0.209815
Zr      2.52580     10.48920     10.48920        -0.134863     -0.023953     -0.120359
Zr     18.45260     10.48920     10.48920         0.174271      0.057554     -0.094151
Pd     13.30926      8.37350      8.00296        -0.014800     -0.062596     -0.049384
Pd      8.95266     14.29582     12.01752         0.078083     -0.017820     -0.056656
Pd     12.20295     11.23037     10.59490        -0.009898     -0.193442      0.032144
Pd     14.67650     10.84703     11.70981        -0.069638     -0.083587      0.035291
Pd     11.22242      9.18745      6.43991        -0.061859      0.145851      0.005747
Pd      6.99808      7.75511      8.52393        -0.023139      0.046416      0.086587
Ir      9.95661     11.79123     11.91880         0.023479      0.032186     -0.078818
Ir     13.15515      8.70756     10.69021         0.092177     -0.109038     -0.195736
Ir     12.16790     11.14551      7.93153        -0.108806     -0.028430      0.031488
Ir      9.03581     14.09811      9.30156         0.103946      0.178374     -0.188463
Ir     10.87543      9.30319     11.88883        -0.089304     -0.017578     -0.006081
Ir      8.70258      9.71966      7.94461         0.126773      0.025157      0.109059
Ir     13.55286     12.98313      9.10162        -0.007938     -0.126456      0.026882
Ir     11.37881     13.53940      7.93685         0.135113     -0.021161     -0.121732
Ir     14.29460     10.47947      9.24296        -0.047320      0.006717     -0.070638
Ir      9.55776      7.28333     10.58778         0.047012     -0.087477      0.206252
Ir      7.78334     12.21777      7.92160         0.088594      0.094411      0.055166
Ir      9.57314      7.42300      8.03226        -0.156552     -0.074721     -0.021168
Ir     11.47531     13.64080     13.19539        -0.018971      0.026229     -0.100710
Ir     11.85922      6.97570     12.08806         0.026175     -0.104736     -0.048898
Ir      9.92823     11.66664      9.25591        -0.009416     -0.099631      0.009812
Ir     13.28034      8.75370     13.27335        -0.112235     -0.151668     -0.033844
Ir     10.96959      9.19709      9.23918         0.077702      0.146774     -0.012707
Ir     11.23329     13.72982     10.51791        -0.009309     -0.108948      0.025256
Ir     13.44646     13.19709     11.89167         0.093692     -0.036347     -0.025057
Ir     12.22696     11.22423     13.25528        -0.014250     -0.003907     -0.065978
Ir      9.94986     11.50475      6.62490         0.151927      0.085581      0.072815
Ir     11.77431      6.77249      9.51824         0.034939      0.088102      0.023122
Ir      7.34336      7.81730     11.95197         0.023387      0.049627     -0.096123
Ir      7.74656     12.29028     10.58184         0.131507     -0.086347     -0.005731
Ir     11.00382      9.33576     14.42628        -0.020277      0.062091      0.012051
Ir      7.67764     12.15706     13.17444         0.143276      0.025826     -0.197022
Ir      6.53429     10.31304      9.31088         0.079029      0.136632      0.019610
Ir      8.65880      9.72942     13.23561         0.025695     -0.073313      0.010504
Ir      6.38587     10.21968     11.68763         0.202921     -0.027380     -0.079549
Ir      9.32268      7.22258     13.21058        -0.046127      0.148558      0.010607
Ir      9.87191     11.60302     14.46985         0.299738      0.008575      0.069220
Ir      8.67029      9.71839     10.59489        -0.205152      0.101404     -0.062111
