8
# total energy = -53.45732725 eVC      1.14292     13.18385      0.00000         0.000000     -0.080740      0.000000
C      1.14292      4.10235     -0.00000        -0.000000      0.080740      0.000000
O      1.14292      5.28942      0.00000         0.000000      0.312212     -0.000000
O      1.14292     11.99678     -0.00000         0.000000     -0.312212      0.000000
O     -0.00000     13.95034      0.00000        -0.000000      0.295051     -0.000000
O      0.00000      3.33586     -0.00000         0.000000     -0.295051      0.000000
Ir     -0.00000      8.64310      0.00000         0.000000      0.000000      0.000000
Ir     -0.00000      0.00000      0.00000         0.000000      0.000000      0.000000
