152
# total energy = -1060.08456436 eVH     10.35389      5.87395      7.64558        -0.308140      0.080547      1.119177
H     10.62451     15.10445      7.64558         0.055978     -0.067336      0.932671
H     10.62451      5.87395     13.33282        -0.273823      0.060553     -0.795513
H     10.35389     15.10445     13.33282         0.072929     -0.305966     -0.859014
H      7.64558     10.35389      5.87395         0.922672     -0.161097      0.194311
H      7.64558     10.62451     15.10445         0.327476     -0.035786     -0.067365
H     13.33282     10.62451      5.87395        -0.871419      0.204036      0.227141
H     13.33282     10.35389     15.10445        -0.278086     -0.022350     -0.070084
H      5.87395      7.64558     10.35389         0.089014      0.430781     -0.009645
H     15.10445      7.64558     10.62451        -0.000183      0.442744     -0.073775
H      5.87395     13.33282     10.62451        -0.002164     -0.961590      0.094275
H     15.10445     13.33282     10.35389        -0.038941     -0.331531     -0.008016
H      5.87395     10.35389      7.64558         0.293791      0.092347      0.385508
H     15.10445     10.62451      7.64558        -0.116382     -0.176332      0.672582
H      5.87395     10.62451     13.33282        -0.074018      0.465898     -0.614075
H     15.10445     10.35389     13.33282         0.260147     -0.664343     -0.828729
H     10.35389      7.64558      5.87395        -0.049772      0.494317      0.340810
H     10.62451      7.64558     15.10445         0.334988      0.819813      0.014757
H     10.62451     13.33282      5.87395         0.152141     -0.559020      0.197355
H     10.35389     13.33282     15.10445         0.019829     -0.284799     -0.166921
H      7.64558      5.87395     10.35389         0.359197      0.104703      0.055220
H      7.64558     15.10445     10.62451         0.385877     -0.127235      0.167418
H     13.33282      5.87395     10.62451        -0.308179      0.135762     -0.017332
H     13.33282     15.10445     10.35389        -0.672834     -0.079750      0.123731
H     12.45634     12.45634     19.01126         0.256781      0.271764     -0.228007
H     19.01126     19.01126     19.01126        -0.245436     -0.268909     -0.246919
H     19.01126     12.45634     12.45634        -0.250413      0.271974      0.235533
H     12.45634     19.01126     12.45634         0.289389     -0.237073      0.233566
C     10.35284      5.61067      6.59456         0.401510     -0.421876     -1.381968
C     10.62556     15.36773      6.59456        -0.141906      0.584081     -0.638207
C     10.62556      5.61067     14.38384         0.371527     -0.309786      0.794229
C     10.35284     15.36773     14.38384        -0.217945      0.180199      1.086072
C      6.59456     10.35284      5.61067        -1.424031      0.035307     -0.247977
C      6.59456     10.62556     15.36773        -0.649421      0.066066      0.367492
C     14.38384     10.62556      5.61067         1.282246     -0.172786     -0.645119
C     14.38384     10.35284     15.36773         0.333124     -0.120761      0.340010
C      5.61067      6.59456     10.35284        -0.284294     -0.697369     -0.028527
C     15.36773      6.59456     10.62556         0.413950     -0.922757      0.055205
C      5.61067     14.38384     10.62556        -0.142589      1.168649     -0.221424
C     15.36773     14.38384     10.35284         0.516206      0.688847     -0.024493
C      5.61067     10.35284      6.59456        -0.380698     -0.095675     -0.731689
C     15.36773     10.62556      6.59456         0.433614      0.108481     -0.756567
C      5.61067     10.62556     14.38384        -0.402100     -0.171499      1.225594
C     15.36773     10.35284     14.38384         0.268861      0.193032      1.492069
C     10.35284      6.59456      5.61067        -0.056373     -0.739245     -0.593299
C     10.62556      6.59456     15.36773        -0.141774     -0.986316      0.373205
C     10.62556     14.38384      5.61067        -0.477791      0.377714     -0.742696
C     10.35284     14.38384     15.36773        -0.161562      0.743783      0.462803
C      6.59456      5.61067     10.35284        -0.563555     -0.355372      0.004666
C      6.59456     15.36773     10.62556        -0.395487      0.455689      0.057603
C     14.38384      5.61067     10.62556         0.434807     -0.318974      0.002492
C     14.38384     15.36773     10.35284         1.147397      0.528772     -0.069487
C     10.40319      3.19606      7.29314        -0.002998      0.705822     -0.325860
C     10.35913      4.25547      6.23373         0.012215     -0.405161      0.282866
C      0.08601      7.29314      7.29314        -0.018304     -0.361857     -0.511378
C      0.13007      6.23373      6.23373        -0.052298      0.910835      0.085553
C      0.08601      3.19606      3.19606        -0.005395      0.702267      0.266475
C      0.13007      4.25547      4.25547         0.039436     -0.269208     -0.539344
C     10.40319      7.29314      3.19606        -0.067270     -1.146089      0.570833
C     10.35913      6.23373      4.25547        -0.039870      0.359014     -0.194897
C      7.29314     10.40319      3.19606        -1.113035     -0.060555      0.187020
C      6.23373     10.35913      4.25547         0.373269      0.086123     -0.535044
C      7.29314      0.08601      7.29314        -0.409520      0.034389     -0.522003
C      6.23373      0.13007      6.23373         0.180604      0.126994      0.131173
C      3.19606      0.08601      3.19606         0.724876      0.031369      0.163029
C      4.25547      0.13007      4.25547        -0.168378     -0.040983     -0.372084
C      3.19606     10.40319      7.29314         0.359233     -0.023858     -0.923005
C      4.25547     10.35913      6.23373        -0.138985     -0.069967      0.096712
C      3.19606      7.29314     10.40319         0.593329     -0.400125      0.000940
C      4.25547      6.23373     10.35913        -0.111808      0.191421      0.009400
C      7.29314      7.29314      0.08601        -0.422791     -0.310648     -0.018827
C      6.23373      6.23373      0.13007         0.156413      0.177970     -0.042287
C      3.19606      3.19606      0.08601         0.290751      0.486663     -0.027191
C      4.25547      4.25547      0.13007        -0.388219     -0.224700     -0.041692
C      7.29314      3.19606     10.40319        -0.271695      0.580840     -0.010590
C      6.23373      4.25547     10.35913         0.020718     -0.085758      0.017743
O     10.43466      3.58206      8.50569        -0.026168      0.088913      0.316954
O     10.54374     17.39634      8.50569         0.064740     -0.133600      0.613774
O     10.54374      3.58206     12.47271         0.028200      0.101511     -0.396003
O     10.43466     17.39634     12.47271         0.091377     -0.053576     -0.396843
O      8.50569     10.43466      3.58206         0.741713     -0.070069      0.009424
O      8.50569     10.54374     17.39634         0.459981      0.056050     -0.078330
O     12.47271     10.54374      3.58206        -0.666726      0.105969      0.213435
O     12.47271     10.43466     17.39634        -0.277098      0.004555      0.025118
O      3.58206      8.50569     10.43466         0.038456      0.451724     -0.063585
O     17.39634      8.50569     10.54374        -0.053872      0.455481      0.055755
O      3.58206     12.47271     10.54374         0.107332     -0.591208      0.002976
O     17.39634     12.47271     10.43466        -0.172164     -0.725142     -0.056229
O      3.58206     10.43466      8.50569         0.209912     -0.064688      0.801053
O     17.39634     10.54374      8.50569        -0.115470      0.076247      0.577721
O      3.58206     10.54374     12.47271        -0.007781     -0.004232     -0.253260
O     17.39634     10.43466     12.47271         0.047620     -0.012302     -0.207782
O     10.43466      8.50569      3.58206        -0.096948      0.547981     -0.103168
O     10.54374      8.50569     17.39634         0.061320      0.506255     -0.088014
O     10.54374     12.47271      3.58206         0.105289     -0.643756      0.131836
O     10.43466     12.47271     17.39634        -0.063565     -0.662464     -0.253931
O      8.50569      3.58206     10.43466         0.397179      0.028107     -0.039122
O      8.50569     17.39634     10.54374         0.638453     -0.156352      0.047808
O     12.47271      3.58206     10.54374        -0.511215      0.121730      0.031715
O     12.47271     17.39634     10.43466        -0.616233     -0.133310      0.038118
O     11.90042     11.90042     19.56718        -0.277097     -0.309071      0.228343
O     19.56718     19.56718     19.56718         0.305418      0.322897      0.301009
O     19.56718     11.90042     11.90042         0.284690     -0.328725     -0.232729
O     11.90042     19.56718     11.90042        -0.314379      0.230353     -0.200503
O      9.45224      1.03696      9.45224        -0.073724      0.075769     -0.081765
O      1.03696      9.45224      9.45224         0.091745     -0.108362     -0.058285
O      1.03696      1.03696      1.03696         0.081589      0.051990      0.101522
O      9.45224      9.45224      1.03696        -0.057984     -0.130381      0.132891
Zr     10.48920      2.52580     10.48920         0.037391     -0.078434      0.099193
Zr     10.48920     18.45260     10.48920        -0.174941      0.261126     -0.356459
Zr     10.48920     10.48920      2.52580         0.111845      0.363282     -0.356173
Zr     10.48920     10.48920     18.45260        -0.085548     -0.239573      0.214896
Zr      2.52580     10.48920     10.48920        -0.243341      0.138054      0.233699
Zr     18.45260     10.48920     10.48920         0.211408     -0.116555      0.000906
Pd      9.38343     14.25972      9.36955        -0.026976      0.007109     -0.037374
Pd      8.60821     13.67023     12.95735         0.000420     -0.015690      0.022313
Pd     12.02590     14.40211      8.72339         0.000776     -0.004192      0.005183
Pd     12.84276     12.87328     10.62302        -0.052091      0.021463      0.029104
Pd     12.10647      7.17390     12.66256         0.016993     -0.006425     -0.015191
Pd     11.22327     14.83204     11.51023        -0.028303      0.015453     -0.026163
Pd     10.11790     12.47985     11.11408        -0.043532      0.050504     -0.021218
Pd     13.46813     12.11178      7.97040         0.012996      0.018711      0.002046
Pd     11.47735     11.53645      6.10496         0.002641      0.000822     -0.004164
Pd      7.90817      8.51963      7.52611         0.008441     -0.046716      0.005817
Pd      8.72423     11.75288      6.85140        -0.006302      0.006305      0.000317
Pd     10.35414      9.45919      8.13453        -0.024717     -0.013314      0.000698
Pd      8.51425     14.46276      6.84313        -0.011794     -0.004591     -0.015972
Pd     12.38874      8.98327      6.51353         0.004519      0.014356      0.012153
Pd      9.71788      9.61299      5.55883        -0.004433      0.000500      0.004440
Pd      6.83296      9.44007     12.17559        -0.015163     -0.001061     -0.006529
Pd     12.18835      6.71360      7.92558        -0.010320      0.007653     -0.002213
Pd      5.91897     10.46414      9.72066        -0.001147      0.004050     -0.003249
Pd      7.58268      7.20898     13.41416        -0.008038      0.017714     -0.012503
Ir     11.78382      9.76285     13.04094        -0.024963     -0.011796      0.031548
Ir     13.56529      8.99547     11.43502        -0.013969      0.018226      0.001676
Ir      9.46396      8.85299     13.97166        -0.037548     -0.002032      0.011404
Ir     10.56533     11.04825     14.81547        -0.028630     -0.019002      0.030793
Ir      7.29102     12.01064     11.33997        -0.016670      0.010942     -0.008870
Ir     14.68645     10.83396     10.07941        -0.006832      0.021839      0.008972
Ir     12.15273     10.56325      9.72070         0.014461     -0.013159     -0.041062
Ir      8.75350     11.00285     13.00085         0.028211      0.024091      0.011733
Ir     10.10748      9.87683     11.19995        -0.011984      0.010340     -0.023356
Ir     13.80036     11.36934     12.40053        -0.019743      0.016555      0.051858
Ir     11.71681     12.37449     13.07339        -0.082747     -0.011058      0.001374
Ir      8.50408     11.07900      9.34285         0.002545     -0.005772     -0.012051
Ir     11.56844      8.00699     10.11384         0.001421      0.003196     -0.008448
Ir      7.21981     13.01835      8.66829         0.033232      0.001499     -0.003796
Ir      9.51005      6.99060      9.16889         0.014499      0.020860      0.061934
Ir      8.03828      8.75717     10.07792         0.024484      0.000206     -0.005232
Ir     10.72123     12.11244      8.50733        -0.010706      0.013414      0.002051
Ir      9.50730      7.51490     11.71870        -0.001458      0.007633      0.011672
Ir     13.62077      8.79632      8.78636         0.006615      0.010047      0.048148
