152
# total energy = -1002.74346788 eVH     10.35389      5.87395      7.64558         0.030121      0.113926      1.113463
H     10.62451     15.10445      7.64558        -0.009007     -0.076741      1.047214
H     10.62451      5.87395     13.33282         0.135478      0.017561     -1.172315
H     10.35389     15.10445     13.33282        -0.212122     -0.153615     -0.993846
H      7.64558     10.35389      5.87395         0.887408      0.362910     -0.238658
H      7.64558     10.62451     15.10445         0.712466      0.259725      0.066562
H     13.33282     10.62451      5.87395        -0.687966      0.247354      0.001549
H     13.33282     10.35389     15.10445        -0.661462     -0.120409      0.046621
H      5.87395      7.64558     10.35389        -0.408202      2.203122      0.356790
H     15.10445      7.64558     10.62451         0.077514      1.530242      0.136547
H      5.87395     13.33282     10.62451        -0.032010     -1.045727     -0.247481
H     15.10445     13.33282     10.35389         0.074071     -1.152846     -0.311811
H      5.87395     10.35389      7.64558        -0.842579      0.321118      1.337015
H     15.10445     10.62451      7.64558         0.321543      0.665603      1.539970
H      5.87395     10.62451     13.33282        -0.677088      0.495472     -1.322144
H     15.10445     10.35389     13.33282         0.921304     -0.069373     -1.151354
H     10.35389      7.64558      5.87395         0.425870      1.168526     -0.069798
H     10.62451      7.64558     15.10445         0.281155      0.679786     -0.079571
H     10.62451     13.33282      5.87395        -0.457301     -1.044053     -0.018075
H     10.35389     13.33282     15.10445        -0.138556     -0.500184     -0.145282
H      7.64558      5.87395     10.35389         0.738832     -0.149795      0.015275
H      7.64558     15.10445     10.62451         0.546776     -0.157110     -0.079213
H     13.33282      5.87395     10.62451        -0.979126      0.031103      0.251132
H     13.33282     15.10445     10.35389        -0.437734     -0.092610     -0.062142
H     12.45634     12.45634     19.01126         0.258964      0.235890     -0.246835
H     19.01126     19.01126     19.01126        -0.255442     -0.251139     -0.237929
H     19.01126     12.45634     12.45634        -0.256317      0.267052      0.231904
H     12.45634     19.01126     12.45634         0.264446     -0.266055      0.225023
C     10.35284      5.61067      6.59456        -0.130624     -0.923290     -0.975022
C     10.62556     15.36773      6.59456        -0.086180      0.513666     -0.863709
C     10.62556      5.61067     14.38384        -0.203727     -0.541683      1.532917
C     10.35284     15.36773     14.38384         0.169926      0.297272      0.997122
C      6.59456     10.35284      5.61067        -1.791645      0.161437     -1.097648
C      6.59456     10.62556     15.36773        -1.056856      0.208657      0.815290
C     14.38384     10.62556      5.61067         1.636696      0.154742     -0.940297
C     14.38384     10.35284     15.36773         1.120114     -0.002736      0.712226
C      5.61067      6.59456     10.35284        -0.636805     -1.608737     -0.007032
C     15.36773      6.59456     10.62556         0.594790     -0.656811      0.149567
C      5.61067     14.38384     10.62556        -0.308205      1.128286      0.099844
C     15.36773     14.38384     10.35284         0.267431      1.315465      0.082021
C      5.61067     10.35284      6.59456        -0.398926     -0.006360     -1.676534
C     15.36773     10.62556      6.59456         0.507094      0.061624     -1.327731
C      5.61067     10.62556     14.38384        -0.182545     -0.064903      1.557151
C     15.36773     10.35284     14.38384         0.097429     -0.022837      1.627159
C     10.35284      6.59456      5.61067        -0.027611     -1.080252     -0.681445
C     10.62556      6.59456     15.36773         0.097419     -0.634750      0.624577
C     10.62556     14.38384      5.61067         0.144402      0.879510     -0.521509
C     10.35284     14.38384     15.36773        -0.046206      0.474202      0.467848
C      6.59456      5.61067     10.35284        -0.431485     -1.208393      0.005087
C      6.59456     15.36773     10.62556        -0.703855      0.672431     -0.016054
C     14.38384      5.61067     10.62556         0.580789     -0.843030     -0.099581
C     14.38384     15.36773     10.35284         0.448239      0.526750     -0.034481
C     10.40319      3.19606      7.29314        -0.021597      0.317319     -0.767302
C     10.35913      4.25547      6.23373        -0.050386     -0.541182      0.153779
C      0.08601      7.29314      7.29314        -0.010066     -0.463385     -0.319369
C      0.13007      6.23373      6.23373        -0.028090      0.395041      0.306034
C      0.08601      3.19606      3.19606         0.009450      0.425245      0.517312
C      0.13007      4.25547      4.25547         0.002161     -0.449945     -0.452257
C     10.40319      7.29314      3.19606        -0.047694     -0.788323      0.268525
C     10.35913      6.23373      4.25547         0.011511      0.285927     -0.629126
C      7.29314     10.40319      3.19606        -0.723990     -0.015092      0.125475
C      6.23373     10.35913      4.25547         0.346944     -0.033019     -0.382152
C      7.29314      0.08601      7.29314        -0.501386     -0.062982     -0.275432
C      6.23373      0.13007      6.23373         0.506878     -0.154388      0.301842
C      3.19606      0.08601      3.19606         0.773346     -0.037957      0.209085
C      4.25547      0.13007      4.25547        -0.458550     -0.236538     -0.500578
C      3.19606     10.40319      7.29314         0.331652      0.002280     -0.185423
C      4.25547     10.35913      6.23373        -0.272988     -0.024897      0.372629
C      3.19606      7.29314     10.40319         0.277876     -0.420708      0.001097
C      4.25547      6.23373     10.35913        -0.839766      0.169678      0.076769
C      7.29314      7.29314      0.08601        -0.410415     -0.373470     -0.012825
C      6.23373      6.23373      0.13007         0.774817      0.070987     -0.018998
C      3.19606      3.19606      0.08601         0.737116      0.324650     -0.011433
C      4.25547      4.25547      0.13007        -0.321238     -0.680845     -0.069377
C      7.29314      3.19606     10.40319        -0.341308      0.411622      0.011190
C      6.23373      4.25547     10.35913         0.414095     -0.452252      0.067604
O     10.43466      3.58206      8.50569         0.078945      0.241350      0.683486
O     10.54374     17.39634      8.50569         0.018285     -0.156488      0.422249
O     10.54374      3.58206     12.47271         0.094335      0.172511     -0.536188
O     10.43466     17.39634     12.47271        -0.029605     -0.085219     -0.348320
O      8.50569     10.43466      3.58206         0.687042     -0.098437      0.229429
O      8.50569     10.54374     17.39634         0.614257     -0.014977     -0.237885
O     12.47271     10.54374      3.58206        -0.746292      0.072745      0.279874
O     12.47271     10.43466     17.39634        -0.490000      0.010882     -0.219624
O      3.58206      8.50569     10.43466         0.173452      0.575450     -0.019927
O     17.39634      8.50569     10.54374        -0.154084      0.512898      0.039033
O      3.58206     12.47271     10.54374         0.084770     -0.408208      0.032983
O     17.39634     12.47271     10.43466        -0.173175     -0.527759     -0.027396
O      3.58206     10.43466      8.50569         0.166025     -0.022857      0.343466
O     17.39634     10.54374      8.50569        -0.124441      0.067911      0.374995
O      3.58206     10.54374     12.47271         0.053926      0.051132     -0.252911
O     17.39634     10.43466     12.47271        -0.060266     -0.017354     -0.206033
O     10.43466      8.50569      3.58206        -0.090192      0.711862      0.180572
O     10.54374      8.50569     17.39634        -0.009879      0.582509     -0.192099
O     10.54374     12.47271      3.58206         0.033641     -0.505607      0.101212
O     10.43466     12.47271     17.39634        -0.020458     -0.398458     -0.069291
O      8.50569      3.58206     10.43466         0.568991      0.141084     -0.038428
O      8.50569     17.39634     10.54374         0.583785     -0.180457      0.039295
O     12.47271      3.58206     10.54374        -0.739828      0.179982      0.022293
O     12.47271     17.39634     10.43466        -0.518912     -0.143246     -0.025498
O     11.90042     11.90042     19.56718        -0.301099     -0.253215      0.279212
O     19.56718     19.56718     19.56718         0.301813      0.310627      0.276359
O     19.56718     11.90042     11.90042         0.312675     -0.306201     -0.234370
O     11.90042     19.56718     11.90042        -0.314678      0.329369     -0.216269
O      9.45224      1.03696      9.45224        -0.022371      0.096167     -0.068594
O      1.03696      9.45224      9.45224         0.049254     -0.018755     -0.077833
O      1.03696      1.03696      1.03696         0.035564      0.085436      0.108581
O      9.45224      9.45224      1.03696        -0.048350     -0.023729      0.137023
Zr     10.48920      2.52580     10.48920        -0.172877     -0.292654      0.058936
Zr     10.48920     18.45260     10.48920         0.074794      0.088002     -0.060100
Zr     10.48920     10.48920      2.52580         0.017145      0.068197     -0.394323
Zr     10.48920     10.48920     18.45260         0.007759     -0.055064      0.238770
Zr      2.52580     10.48920     10.48920        -0.090315     -0.115219     -0.048902
Zr     18.45260     10.48920     10.48920         0.098185     -0.009974     -0.071853
Pd     11.83505      8.57737     10.31993         0.010400     -0.047942     -0.020795
Pd      7.16433     10.10665     10.40650        -0.067793     -0.067117     -0.132832
Pd      7.22305     12.51146     11.75339         0.045936     -0.047924     -0.005640
Pd     12.01763     13.32414      7.32895        -0.054013      0.016310      0.123110
Pd     11.43859      8.26974      7.52556         0.139697      0.040073     -0.074609
Pd      8.77330      7.24051      7.27025         0.081502      0.007077     -0.063689
Pd     11.58620     10.94014      6.15711        -0.006268      0.033758     -0.038451
Pd     13.67807      9.45210      7.62207        -0.075154     -0.108849      0.073028
Pd      9.43941     11.84738      7.42285         0.007786     -0.012626      0.062115
Pd      7.09896      7.74582     11.77414         0.006404     -0.137089      0.153228
Pd      6.84707      7.68797      8.83940         0.133412      0.065278     -0.064471
Pd      7.50229     10.01163     12.98466        -0.181859     -0.155399      0.175786
Pd     11.48830      6.10516      9.12363        -0.074938     -0.177976     -0.000910
Pd      9.43736      9.54189      5.96872         0.056695     -0.041406     -0.032343
Pd      9.30469     14.10170      8.78429         0.026292      0.144232      0.004700
Pd     11.50890      6.36963     11.76471        -0.029237     -0.103665     -0.000289
Pd      9.64455      9.32767      9.01343         0.020071      0.012337      0.054818
Pd      9.32540     11.76439     10.16334         0.114569     -0.016327      0.049793
Pd      9.32523      7.07946     10.27544        -0.014084      0.003769      0.061633
Pd      9.18137      7.24964     13.21652        -0.051502      0.000502      0.068192
Pd      9.52363      9.40493     11.62423         0.089937     -0.066338     -0.023963
Pd     11.67454     10.93417      8.80704         0.141608     -0.008365     -0.024850
Pd      7.11628     12.46815      8.90881        -0.041551      0.063514      0.009231
Pd      7.58662      9.96790      7.87794        -0.192290     -0.068273     -0.055963
Pd     13.87177      7.27802      8.99145        -0.076730     -0.013407     -0.173084
Pd     13.83384      7.84985     12.13230        -0.031574      0.020228     -0.110130
Pd      9.43277     11.86861     13.00165         0.071875      0.021735     -0.000492
Pd     13.95065     12.28508      8.77583         0.158821      0.082701     -0.033795
Pd     13.44337     10.43505     12.81283         0.260907     -0.058985      0.021011
Pd     13.97581     10.04681     10.25835         0.115279     -0.012733     -0.026353
Pd     11.50665     11.14078     11.43241        -0.071112      0.063321      0.046572
Pd     11.61046     13.43793      9.98749        -0.065003      0.024041      0.058786
Pd     13.71007     12.65656     11.47368         0.121026      0.024506     -0.083339
Pd     11.67731     13.53187     12.88038         0.034560     -0.063861     -0.091852
Pd     11.55160     11.33709     14.42112         0.091137     -0.045229      0.068073
Pd     11.54077      8.71685     13.13475        -0.042914      0.012491      0.110776
Pd      9.52844      9.59264     14.63935        -0.002171      0.007694      0.124762
Pd      9.43782     14.13482     11.44056        -0.036607     -0.042051      0.080863
