152
# total energy = -1024.43275294 eVH     10.35389      5.87395      7.64558         0.476107      0.027364      0.733325
H     10.62451     15.10445      7.64558         0.062529     -0.201440      0.631429
H     10.62451      5.87395     13.33282         0.093795      0.156412     -0.572983
H     10.35389     15.10445     13.33282        -0.482571     -0.030707     -0.747484
H      7.64558     10.35389      5.87395         0.346238      0.027729      0.159760
H      7.64558     10.62451     15.10445         0.923589     -0.248343      0.043689
H     13.33282     10.62451      5.87395        -0.796690     -0.139065      0.148779
H     13.33282     10.35389     15.10445        -0.901591     -0.429349      0.212522
H      5.87395      7.64558     10.35389         0.162005      0.731869     -0.332094
H     15.10445      7.64558     10.62451        -0.140094      0.381213     -0.017942
H      5.87395     13.33282     10.62451         0.157359     -0.517214     -0.104891
H     15.10445     13.33282     10.35389        -0.093093     -1.197346      0.096358
H      5.87395     10.35389      7.64558         0.136689      0.181210      0.521279
H     15.10445     10.62451      7.64558         0.009363      0.093398      1.041026
H      5.87395     10.62451     13.33282         0.074962     -0.041456     -0.458661
H     15.10445     10.35389     13.33282        -0.172974     -0.158297     -0.444350
H     10.35389      7.64558      5.87395         0.089648      1.023176      0.230131
H     10.62451      7.64558     15.10445         0.000647      0.270034     -0.161338
H     10.62451     13.33282      5.87395        -0.090117     -0.385567      0.319907
H     10.35389     13.33282     15.10445        -0.445697     -0.584292      0.000563
H      7.64558      5.87395     10.35389         0.525299      0.091021     -0.109088
H      7.64558     15.10445     10.62451         0.935711     -0.218701     -0.184231
H     13.33282      5.87395     10.62451        -0.592812      0.093032     -0.068168
H     13.33282     15.10445     10.35389        -0.591482     -0.061463      0.241030
H     12.45634     12.45634     19.01126         0.235975      0.277969     -0.237481
H     19.01126     19.01126     19.01126        -0.249256     -0.249165     -0.242104
H     19.01126     12.45634     12.45634        -0.267105      0.264873      0.219611
H     12.45634     19.01126     12.45634         0.237490     -0.266706      0.239796
C     10.35284      5.61067      6.59456        -0.217437     -0.688642      0.097983
C     10.62556     15.36773      6.59456        -0.050014      0.377714     -0.860027
C     10.62556      5.61067     14.38384        -0.005222     -0.053230      0.697757
C     10.35284     15.36773     14.38384         0.197611      0.697909      0.162292
C      6.59456     10.35284      5.61067        -0.349573     -0.015323     -0.309720
C      6.59456     10.62556     15.36773        -1.089704      0.257904      0.280482
C     14.38384     10.62556      5.61067         0.420624      0.385688     -0.691705
C     14.38384     10.35284     15.36773         1.070454      0.029855      0.241911
C      5.61067      6.59456     10.35284        -0.421420     -0.373262      0.364377
C     15.36773      6.59456     10.62556         0.188091     -0.491518      0.013337
C      5.61067     14.38384     10.62556        -0.200247      0.576610      0.000212
C     15.36773     14.38384     10.35284         0.335246      0.039273     -0.118089
C      5.61067     10.35284      6.59456        -0.332386     -0.091422     -1.018277
C     15.36773     10.62556      6.59456         0.916443     -0.347228     -0.964714
C      5.61067     10.62556     14.38384        -0.418781      0.027962      0.299777
C     15.36773     10.35284     14.38384         0.653348     -0.096941      1.069967
C     10.35284      6.59456      5.61067        -0.231089     -0.583677     -0.940281
C     10.62556      6.59456     15.36773         0.059641     -0.263138      0.043632
C     10.62556     14.38384      5.61067         0.061375      1.197804     -0.416619
C     10.35284     14.38384     15.36773         0.281944      0.157898      0.711957
C      6.59456      5.61067     10.35284        -0.181751     -0.733446      0.150225
C      6.59456     15.36773     10.62556        -1.225018      0.245069      0.167955
C     14.38384      5.61067     10.62556         1.065976     -0.297560      0.037770
C     14.38384     15.36773     10.35284        -0.469434      0.808740     -0.401843
C     10.40319      3.19606      7.29314        -0.033687      0.877344     -0.416307
C     10.35913      4.25547      6.23373         0.053839     -0.506369      0.548404
C      0.08601      7.29314      7.29314        -0.021928     -0.409473     -0.349576
C      0.13007      6.23373      6.23373        -0.023713      0.016433      0.101152
C      0.08601      3.19606      3.19606         0.011146      1.279371      0.191991
C      0.13007      4.25547      4.25547        -0.046027     -0.220354     -0.197201
C     10.40319      7.29314      3.19606        -0.014647     -1.049846      0.372661
C     10.35913      6.23373      4.25547         0.034854      0.476356     -0.675369
C      7.29314     10.40319      3.19606        -0.311197      0.031772      0.725056
C      6.23373     10.35913      4.25547         0.148371      0.068899     -0.105988
C      7.29314      0.08601      7.29314        -0.662239     -0.019345     -0.277635
C      6.23373      0.13007      6.23373         0.383358     -0.075473      0.542929
C      3.19606      0.08601      3.19606         1.013293     -0.004184      0.260047
C      4.25547      0.13007      4.25547        -0.165388     -0.035243     -0.538102
C      3.19606     10.40319      7.29314         0.362983     -0.009858     -0.949208
C      4.25547     10.35913      6.23373        -0.284916      0.089899      0.240609
C      3.19606      7.29314     10.40319         0.520887     -1.334622     -0.038073
C      4.25547      6.23373     10.35913        -0.549004      0.740733      0.113293
C      7.29314      7.29314      0.08601        -0.390981     -0.230057      0.000720
C      6.23373      6.23373      0.13007         0.154997      0.144960     -0.003520
C      3.19606      3.19606      0.08601         0.259964      0.249822     -0.017316
C      4.25547      4.25547      0.13007        -0.122856     -0.055240      0.006551
C      7.29314      3.19606     10.40319        -0.393806      0.637401      0.007926
C      6.23373      4.25547     10.35913         1.089714     -0.116346      0.056585
O     10.43466      3.58206      8.50569        -0.024573      0.044738      0.445109
O     10.54374     17.39634      8.50569        -0.006621     -0.112083      0.462148
O     10.54374      3.58206     12.47271         0.039821     -0.108960     -0.127118
O     10.43466     17.39634     12.47271        -0.058200     -0.045744     -0.475778
O      8.50569     10.43466      3.58206         0.285955     -0.031265     -0.037283
O      8.50569     10.54374     17.39634         0.723484      0.026897     -0.201843
O     12.47271     10.54374      3.58206        -0.791519     -0.037185      0.146740
O     12.47271     10.43466     17.39634        -0.283455     -0.028792      0.032005
O      3.58206      8.50569     10.43466         0.158055      1.098617     -0.034657
O     17.39634      8.50569     10.54374        -0.098831      0.434656      0.058588
O      3.58206     12.47271     10.54374         0.067764     -0.398547      0.035992
O     17.39634     12.47271     10.43466        -0.159550     -0.680097     -0.009447
O      3.58206     10.43466      8.50569         0.066959     -0.067508      0.801942
O     17.39634     10.54374      8.50569        -0.060616      0.046042      0.335587
O      3.58206     10.54374     12.47271        -0.012586      0.036984     -0.243582
O     17.39634     10.43466     12.47271        -0.256282      0.000334     -0.716532
O     10.43466      8.50569      3.58206         0.118182      0.829738      0.190829
O     10.54374      8.50569     17.39634         0.031836      0.607817     -0.145530
O     10.54374     12.47271      3.58206         0.007328     -1.009412      0.172257
O     10.43466     12.47271     17.39634        -0.041132     -0.926123     -0.206366
O      8.50569      3.58206     10.43466         0.561758      0.125955     -0.015538
O      8.50569     17.39634     10.54374         0.508752     -0.195327     -0.009798
O     12.47271      3.58206     10.54374        -0.475779      0.160699      0.058847
O     12.47271     17.39634     10.43466        -0.413323      0.026439     -0.006257
O     11.90042     11.90042     19.56718        -0.266900     -0.327187      0.256952
O     19.56718     19.56718     19.56718         0.278577      0.292233      0.282990
O     19.56718     11.90042     11.90042         0.301161     -0.300200     -0.202878
O     11.90042     19.56718     11.90042        -0.265551      0.285076     -0.249306
O      9.45224      1.03696      9.45224        -0.080874      0.047591     -0.058734
O      1.03696      9.45224      9.45224         0.042902     -0.153537     -0.115757
O      1.03696      1.03696      1.03696         0.025767      0.120790      0.195226
O      9.45224      9.45224      1.03696        -0.069853     -0.088340      0.116098
Zr     10.48920      2.52580     10.48920        -0.051297     -0.123197     -0.170169
Zr     10.48920     18.45260     10.48920         0.009689      0.216825     -0.022671
Zr     10.48920     10.48920      2.52580        -0.166559     -0.195053     -0.510384
Zr     10.48920     10.48920     18.45260         0.000281     -0.007957      0.432183
Zr      2.52580     10.48920     10.48920        -0.367687      0.298507      0.183621
Zr     18.45260     10.48920     10.48920         0.205680      0.060807     -0.201883
Pd      8.30953      9.67870     13.24041        -0.012692      0.024481      0.015355
Pd     10.49291      9.44763     10.18730        -0.013500     -0.005790     -0.001056
Pd     13.01878      8.78175     12.46702        -0.014525     -0.006161     -0.001536
Pd     10.29426     10.78745     15.05788         0.012543      0.027538     -0.028862
Pd     12.81368     11.35768     13.57013        -0.013472      0.021548      0.003798
Pd     14.84959     10.60487     11.36166         0.011261     -0.002387      0.005813
Pd      6.88135      7.50864     12.29177         0.008328     -0.020455      0.004833
Pd      9.21045      7.19694      9.44707         0.000790     -0.001536      0.027428
Pd      9.57603      7.54132     12.19577         0.005943     -0.001381      0.013417
Pd     11.75563      7.08554     10.80383         0.001594     -0.006696     -0.005567
Pd     11.63121      7.82607      8.26329        -0.017206      0.000452     -0.013980
Pd      7.16485     11.67885     11.51488         0.012751     -0.008172      0.028864
Pd      9.29373     14.31728      9.25764        -0.009168     -0.013364     -0.002725
Pd      8.14068     12.29355     14.00548        -0.008493      0.000534      0.020047
Pd     14.24135     14.18214      8.34924        -0.010967      0.005454     -0.004706
Pd     11.74671     13.28931      8.79275         0.007570      0.019482      0.018345
Pd     14.12705     11.60992      9.00514        -0.030411     -0.027122      0.019077
Pd      8.71366     13.98635     12.00690        -0.021526      0.007606     -0.012397
Pd     12.22755     13.99797     13.95069        -0.011496     -0.000017     -0.021165
Pd     11.41475     14.14471     11.29534        -0.008296     -0.020703     -0.010699
Pd     14.00722     13.29634     12.09591        -0.007135     -0.034817      0.003951
Pd     12.27291     11.51489     10.89888        -0.005027     -0.010828      0.013497
Pd     13.03007     12.59792      6.59171        -0.013582      0.012138      0.006246
Pd     13.96857      8.83575      7.57478        -0.008663     -0.000012      0.006022
Pd      6.96605      8.46308      8.36708         0.004991     -0.018717      0.020946
Pd      5.55254     10.02895     10.05093         0.015878     -0.015709      0.011634
Pd      9.40045      9.46242      7.44726         0.005357     -0.024455      0.000801
Pd      8.47695      6.97714      6.85585        -0.008160     -0.011516     -0.014459
Pd      9.66535     11.94773     10.52771         0.006987     -0.009846     -0.021209
Pd     11.80941     10.61212      8.05315        -0.021890     -0.017210      0.003907
Pd     11.79245      8.92644      5.85537        -0.000673     -0.000779     -0.004140
Pd     10.63141     11.33558      5.73177        -0.009323      0.009775      0.027510
Ir     10.75927      9.83766     12.69100         0.012246      0.012192      0.027606
Ir     13.14955      9.24823      9.94820         0.001533     -0.010883      0.010003
Ir     10.49797     12.29370     12.89501        -0.029765     -0.011098      0.006437
Ir      7.76369     10.97894      9.05094         0.018478     -0.013903      0.022146
Ir      9.59353     12.05542      7.96387        -0.028552     -0.000854     -0.002761
Ir      8.00894      9.17714     10.71720        -0.020111      0.025178      0.005595
