152
# total energy = -1006.00344004 eVH     10.35389      5.87395      7.64558         0.259132      0.034587      0.638193
H     10.62451     15.10445      7.64558        -0.107355     -0.141097      0.512118
H     10.62451      5.87395     13.33282         0.484194      0.121608     -0.583531
H     10.35389     15.10445     13.33282         0.078827     -0.183283     -0.556545
H      7.64558     10.35389      5.87395         0.372519      0.095295      0.161776
H      7.64558     10.62451     15.10445         0.696661      0.471621     -0.039716
H     13.33282     10.62451      5.87395        -0.533275      0.421949      0.074796
H     13.33282     10.35389     15.10445        -0.803616     -0.093607      0.009002
H      5.87395      7.64558     10.35389         0.239612      0.684274     -0.404005
H     15.10445      7.64558     10.62451        -0.095366      0.479571      0.282940
H      5.87395     13.33282     10.62451         0.159693     -0.695769     -0.156142
H     15.10445     13.33282     10.35389        -0.011183     -1.022101     -0.326724
H      5.87395     10.35389      7.64558         0.251515      0.328283      0.764793
H     15.10445     10.62451      7.64558        -0.107544      0.403467      0.758790
H      5.87395     10.62451     13.33282         0.133841      0.327712     -0.690291
H     15.10445     10.35389     13.33282        -0.056054     -0.070642     -0.686798
H     10.35389      7.64558      5.87395         0.395578      1.054935     -0.009324
H     10.62451      7.64558     15.10445         0.535998      0.537169     -0.120809
H     10.62451     13.33282      5.87395        -0.398657     -0.847499      0.186188
H     10.35389     13.33282     15.10445        -0.045195     -0.433475     -0.216599
H      7.64558      5.87395     10.35389         0.848505      0.097026     -0.289385
H      7.64558     15.10445     10.62451         0.837899     -0.196110      0.013415
H     13.33282      5.87395     10.62451        -0.805964      0.197681      0.586873
H     13.33282     15.10445     10.35389        -0.443983     -0.112025     -0.129768
H     12.45634     12.45634     19.01126         0.235277      0.270076     -0.240040
H     19.01126     19.01126     19.01126        -0.262510     -0.240621     -0.261079
H     19.01126     12.45634     12.45634        -0.266957      0.268864      0.218256
H     12.45634     19.01126     12.45634         0.231928     -0.255251      0.278972
C     10.35284      5.61067      6.59456        -0.434050     -0.744938      0.208377
C     10.62556     15.36773      6.59456         0.061038      0.368590     -0.294839
C     10.62556      5.61067     14.38384        -0.334060     -0.359175     -0.306336
C     10.35284     15.36773     14.38384        -0.009411      0.330188      0.544416
C      6.59456     10.35284      5.61067        -0.200363     -0.001951     -0.402578
C      6.59456     10.62556     15.36773        -0.265393     -0.220709      0.809552
C     14.38384     10.62556      5.61067        -0.273751     -0.401373     -0.516753
C     14.38384     10.35284     15.36773         0.977381     -0.053428      0.256590
C      5.61067      6.59456     10.35284        -0.540057      0.005847      0.186512
C     15.36773      6.59456     10.62556         0.523938      0.026463     -0.251428
C      5.61067     14.38384     10.62556        -0.342014      0.971429      0.076492
C     15.36773     14.38384     10.35284         0.319077      1.032535      0.054883
C      5.61067     10.35284      6.59456        -0.178298     -0.329290     -0.627412
C     15.36773     10.62556      6.59456         0.448135     -0.290822      0.119342
C      5.61067     10.62556     14.38384        -0.730461     -0.355538     -0.057275
C     15.36773     10.35284     14.38384         0.387313     -0.060435      1.006390
C     10.35284      6.59456      5.61067        -0.203348     -0.194512     -0.658740
C     10.62556      6.59456     15.36773        -0.267833      0.121975      0.446901
C     10.62556     14.38384      5.61067         0.206887      1.067021     -0.347613
C     10.35284     14.38384     15.36773         0.028340      0.535970      0.433214
C      6.59456      5.61067     10.35284        -0.179409     -0.629151      0.231930
C      6.59456     15.36773     10.62556        -1.025603      0.301648      0.079663
C     14.38384      5.61067     10.62556         0.493238     -0.542784     -0.365118
C     14.38384     15.36773     10.35284         0.214902      0.453745     -0.102630
C     10.40319      3.19606      7.29314         0.006661      0.696437     -0.489671
C     10.35913      4.25547      6.23373         0.085472     -0.731581     -0.015146
C      0.08601      7.29314      7.29314        -0.043945     -0.410779     -0.308460
C      0.13007      6.23373      6.23373        -0.022446      0.082004      0.567406
C      0.08601      3.19606      3.19606        -0.018379      1.247131      0.279744
C      0.13007      4.25547      4.25547         0.048735     -0.776361     -0.152135
C     10.40319      7.29314      3.19606         0.009048     -0.347225      0.358814
C     10.35913      6.23373      4.25547         0.027204      0.015668     -0.906345
C      7.29314     10.40319      3.19606        -0.366599      0.019053      0.565613
C      6.23373     10.35913      4.25547         0.207630      0.047396     -0.132966
C      7.29314      0.08601      7.29314        -0.525965     -0.064085     -0.371773
C      6.23373      0.13007      6.23373         0.680374     -0.046579      0.492902
C      3.19606      0.08601      3.19606         0.664311     -0.037535      0.564685
C      4.25547      0.13007      4.25547        -0.572732     -0.080344     -0.555395
C      3.19606     10.40319      7.29314         0.484636     -0.021828     -0.781743
C      4.25547     10.35913      6.23373        -0.512554      0.027213      0.202674
C      3.19606      7.29314     10.40319         0.283060     -1.250079      0.037396
C      4.25547      6.23373     10.35913        -0.696216      0.099242      0.152490
C      7.29314      7.29314      0.08601        -0.406616     -0.370855     -0.028280
C      6.23373      6.23373      0.13007         0.468429      0.213538     -0.021584
C      3.19606      3.19606      0.08601         0.503711      0.371768     -0.039110
C      4.25547      4.25547      0.13007        -0.148736     -0.651736     -0.034592
C      7.29314      3.19606     10.40319        -0.321818      0.419718      0.074727
C      6.23373      4.25547     10.35913         0.253793     -0.696371      0.135555
O     10.43466      3.58206      8.50569        -0.014067      0.101818      0.509632
O     10.54374     17.39634      8.50569         0.036555     -0.174528      0.481795
O     10.54374      3.58206     12.47271         0.057952     -0.082372     -0.188684
O     10.43466     17.39634     12.47271        -0.038260     -0.182686     -0.568656
O      8.50569     10.43466      3.58206         0.341804      0.005424      0.037580
O      8.50569     10.54374     17.39634         0.633101      0.033227     -0.145617
O     12.47271     10.54374      3.58206        -0.672166      0.082476      0.091205
O     12.47271     10.43466     17.39634        -0.439919      0.027410     -0.111680
O      3.58206      8.50569     10.43466         0.182618      1.029664     -0.049540
O     17.39634      8.50569     10.54374        -0.162920      0.539412      0.076366
O      3.58206     12.47271     10.54374         0.082962     -0.361414      0.048849
O     17.39634     12.47271     10.43466        -0.157759     -0.545577     -0.022724
O      3.58206     10.43466      8.50569         0.075868     -0.061358      0.594750
O     17.39634     10.54374      8.50569        -0.110899      0.065810      0.521368
O      3.58206     10.54374     12.47271         0.058317      0.052417     -0.535567
O     17.39634     10.43466     12.47271        -0.216312     -0.040110     -0.590393
O     10.43466      8.50569      3.58206        -0.038806      0.474914      0.133972
O     10.54374      8.50569     17.39634         0.047896      0.529918     -0.161294
O     10.54374     12.47271      3.58206        -0.004396     -1.002486      0.207546
O     10.43466     12.47271     17.39634         0.041958     -0.735738     -0.174243
O      8.50569      3.58206     10.43466         0.506375      0.147010     -0.053709
O      8.50569     17.39634     10.54374         0.485808     -0.198011      0.013751
O     12.47271      3.58206     10.54374        -0.643597      0.236549      0.008116
O     12.47271     17.39634     10.43466        -0.212781      0.068255     -0.056525
O     11.90042     11.90042     19.56718        -0.239765     -0.288745      0.247774
O     19.56718     19.56718     19.56718         0.310004      0.295162      0.300036
O     19.56718     11.90042     11.90042         0.290048     -0.264935     -0.233255
O     11.90042     19.56718     11.90042        -0.242718      0.290924     -0.336993
O      9.45224      1.03696      9.45224        -0.020675      0.086288     -0.072647
O      1.03696      9.45224      9.45224         0.090817     -0.090883     -0.138898
O      1.03696      1.03696      1.03696         0.088778      0.190242      0.046944
O      9.45224      9.45224      1.03696        -0.112079     -0.099844      0.030709
Zr     10.48920      2.52580     10.48920        -0.132669     -0.291913     -0.035728
Zr     10.48920     18.45260     10.48920        -0.072349      0.213939      0.096116
Zr     10.48920     10.48920      2.52580         0.065714     -0.411791     -0.249794
Zr     10.48920     10.48920     18.45260        -0.269647     -0.089784      0.324615
Zr      2.52580     10.48920     10.48920        -0.375512      0.238173      0.304861
Zr     18.45260     10.48920     10.48920         0.241113      0.000104     -0.222295
Pd     13.60356      8.99280      9.19578        -0.005549     -0.003492     -0.005543
Pd      5.62945      9.86558     10.12477         0.002807      0.000629     -0.006498
Pd      6.77059     11.84575     11.70832        -0.000555     -0.000215     -0.000235
Pd     12.05796     12.99294      7.35769        -0.005516     -0.000905      0.000597
Pd     11.87393      7.73739      7.45094         0.000438     -0.006617     -0.003996
Pd      8.31692      6.82445      6.52052         0.000561     -0.010939     -0.005608
Pd     10.55701     11.16763      5.65617        -0.018424     -0.000300     -0.001808
Pd     14.39858      8.54683      6.72539        -0.002771     -0.000302     -0.001548
Pd      9.66327     11.72914      8.15286         0.000652     -0.003677      0.008339
Pd      6.72324      6.78594     12.34293        -0.001359     -0.002616      0.001781
Pd      6.62980      8.29309      7.86306         0.012578      0.008092     -0.015672
Pd      6.52269      8.48973     14.39401        -0.000702     -0.002010      0.003322
Pd     11.48098      6.50664      9.95011        -0.002278     -0.002366      0.000502
Pd      9.45380      9.19805      7.17399        -0.001594     -0.004518      0.000196
Pd      8.97848     13.99194      9.37039        -0.000385     -0.001780      0.005394
Pd      9.42850      7.36575     11.69421        -0.003079      0.001132     -0.004007
Pd     10.63375      8.95445      9.67088         0.005458     -0.003038     -0.004889
Pd      9.34084     11.57462     10.74102        -0.003751      0.002795      0.002800
Pd      8.85715      7.07224      9.10304        -0.002035     -0.000780     -0.004869
Pd      8.55425      6.58032     14.23201         0.000351     -0.001309     -0.001082
Pd      7.61229      9.31750     12.03936        -0.002723     -0.000753      0.003023
Pd     11.93648     10.37311      7.70483         0.001791     -0.007657     -0.010235
Pd      7.12855     12.01445      9.06677         0.003721     -0.005194      0.000250
Pd      8.15335      9.62534      9.48559         0.002722      0.000025      0.009007
Pd     14.00861      6.50208      8.52556        -0.000451     -0.002557     -0.000540
Pd     12.62903      8.40837     11.56303        -0.006288     -0.001134     -0.002675
Pd      8.75863     11.57009     13.41478        -0.002323     -0.000492      0.006172
Pd     13.86580     11.90650      8.96906        -0.003455     -0.003353     -0.002419
Pd     12.92992     10.70059     13.07648        -0.002324     -0.005892     -0.001033
Pd     14.75877     10.42607     11.12176        -0.004606     -0.005012     -0.002262
Pd     12.04544     10.89628     10.53931        -0.008003     -0.003172     -0.005155
Pd     11.44885     13.34972      9.92613         0.000351      0.002209      0.003158
Pd     13.59666     12.90997     11.62620         0.001760     -0.005468     -0.000252
Pd     11.11249     12.63025     12.54547        -0.000394     -0.000283      0.002648
Pd     10.94141     11.06772     14.81802         0.002972     -0.001340      0.001441
Pd     10.49526      9.71835     12.37714        -0.004980     -0.001553     -0.001906
Pd      9.08388      9.14140     14.43768         0.002544     -0.000783      0.004075
Pd      8.79361     13.86631     12.07351        -0.002327     -0.000085      0.008071
