152
# total energy = -1005.16213952 eVH     10.35389      5.87395      7.64558         0.188701      0.090634      0.589114
H     10.62451     15.10445      7.64558        -0.110811     -0.149126      0.475823
H     10.62451      5.87395     13.33282         0.519486      0.068617     -0.848059
H     10.35389     15.10445     13.33282         0.016623     -0.154245     -0.400678
H      7.64558     10.35389      5.87395         0.343530      0.035559      0.165067
H      7.64558     10.62451     15.10445         0.962558      0.565665      0.038952
H     13.33282     10.62451      5.87395        -0.494683      0.340444      0.053050
H     13.33282     10.35389     15.10445        -0.870733     -0.105073      0.008969
H      5.87395      7.64558     10.35389         0.311509      1.286589      0.046513
H     15.10445      7.64558     10.62451        -0.099878      0.512796      0.360051
H      5.87395     13.33282     10.62451         0.166440     -0.568712      0.051572
H     15.10445     13.33282     10.35389        -0.074021     -0.946481     -0.215369
H      5.87395     10.35389      7.64558         0.224898      0.050822      0.442585
H     15.10445     10.62451      7.64558        -0.136697      0.560231      0.758654
H      5.87395     10.62451     13.33282        -0.044376      0.500481     -1.161123
H     15.10445     10.35389     13.33282        -0.088097     -0.046712     -0.624419
H     10.35389      7.64558      5.87395         0.357020      1.161514      0.044137
H     10.62451      7.64558     15.10445         0.618464      0.703650     -0.204793
H     10.62451     13.33282      5.87395        -0.382039     -0.814854      0.298233
H     10.35389     13.33282     15.10445        -0.127712     -0.471729     -0.303819
H      7.64558      5.87395     10.35389         0.731938      0.068608     -0.203379
H      7.64558     15.10445     10.62451         0.804004     -0.169575      0.013843
H     13.33282      5.87395     10.62451        -0.711457      0.150964      0.575641
H     13.33282     15.10445     10.35389        -0.408223     -0.112936     -0.113810
H     12.45634     12.45634     19.01126         0.249937      0.275663     -0.228896
H     19.01126     19.01126     19.01126        -0.281325     -0.256430     -0.229615
H     19.01126     12.45634     12.45634        -0.280512      0.262626      0.215542
H     12.45634     19.01126     12.45634         0.239333     -0.259581      0.271909
C     10.35284      5.61067      6.59456        -0.262683     -0.795581     -0.172105
C     10.62556     15.36773      6.59456         0.044312      0.279971     -0.258000
C     10.62556      5.61067     14.38384        -0.129562     -0.480478      0.400673
C     10.35284     15.36773     14.38384         0.025320      0.190593      0.344636
C      6.59456     10.35284      5.61067        -0.368817      0.009710     -0.205008
C      6.59456     10.62556     15.36773        -0.860531      0.129742      0.667915
C     14.38384     10.62556      5.61067        -0.074282     -0.443197     -0.758462
C     14.38384     10.35284     15.36773         1.078852     -0.083682      0.144843
C      5.61067      6.59456     10.35284        -0.731014     -0.302857     -0.223471
C     15.36773      6.59456     10.62556         0.534186      0.085241     -0.392197
C      5.61067     14.38384     10.62556        -0.184791      0.537650      0.004975
C     15.36773     14.38384     10.35284         0.260339      0.917398      0.027322
C      5.61067     10.35284      6.59456        -0.308387      0.020588     -0.822582
C     15.36773     10.62556      6.59456         0.532883     -0.224357      0.235827
C      5.61067     10.62556     14.38384        -0.741443      0.016789      0.820299
C     15.36773     10.35284     14.38384         0.456697     -0.053067      1.011148
C     10.35284      6.59456      5.61067        -0.128514     -0.856436     -0.601780
C     10.62556      6.59456     15.36773        -0.000830     -0.522807      0.522210
C     10.62556     14.38384      5.61067         0.193704      1.211075     -0.317523
C     10.35284     14.38384     15.36773        -0.008680      0.913096      0.411418
C      6.59456      5.61067     10.35284         0.317899     -1.055793      0.341218
C      6.59456     15.36773     10.62556        -0.945896      0.222714      0.097572
C     14.38384      5.61067     10.62556         0.293056     -0.630934     -0.344563
C     14.38384     15.36773     10.35284         0.173675      0.358451     -0.070770
C     10.40319      3.19606      7.29314         0.003624      0.953462     -0.415084
C     10.35913      4.25547      6.23373         0.067725     -0.540508      0.127889
C      0.08601      7.29314      7.29314        -0.039848     -0.962723     -0.188899
C      0.13007      6.23373      6.23373        -0.071711      0.222731      0.404256
C      0.08601      3.19606      3.19606         0.024544      1.441663      0.234925
C      0.13007      4.25547      4.25547        -0.013248     -0.542310     -0.298974
C     10.40319      7.29314      3.19606        -0.005659     -0.326070      0.253629
C     10.35913      6.23373      4.25547         0.030681      0.018853     -0.734421
C      7.29314     10.40319      3.19606        -0.276884      0.019177      0.531565
C      6.23373     10.35913      4.25547         0.125779      0.044954     -0.062743
C      7.29314      0.08601      7.29314        -1.015708     -0.083408     -0.274760
C      6.23373      0.13007      6.23373         0.860736     -0.207267      0.416681
C      3.19606      0.08601      3.19606         0.839723     -0.039264      0.534881
C      4.25547      0.13007      4.25547        -0.553368     -0.110620     -0.663583
C      3.19606     10.40319      7.29314         0.597145     -0.010561     -0.768627
C      4.25547     10.35913      6.23373        -0.254817      0.071673      0.228619
C      3.19606      7.29314     10.40319         0.323665     -1.251905      0.018673
C      4.25547      6.23373     10.35913        -1.089830      0.050586      0.131027
C      7.29314      7.29314      0.08601        -0.449335     -0.430181     -0.020619
C      6.23373      6.23373      0.13007         0.622548      0.219275      0.019058
C      3.19606      3.19606      0.08601         0.467149      0.333239     -0.040788
C      4.25547      4.25547      0.13007        -0.132584     -0.597233     -0.048069
C      7.29314      3.19606     10.40319        -0.410699      0.480308      0.055992
C      6.23373      4.25547     10.35913         0.259429     -0.757093      0.153487
O     10.43466      3.58206      8.50569        -0.027356      0.023507      0.401776
O     10.54374     17.39634      8.50569         0.073316     -0.041827      0.274757
O     10.54374      3.58206     12.47271         0.027701     -0.129427     -0.115820
O     10.43466     17.39634     12.47271        -0.025359     -0.168397     -0.512534
O      8.50569     10.43466      3.58206         0.276319     -0.021866      0.008718
O      8.50569     10.54374     17.39634         0.868459     -0.062434     -0.169627
O     12.47271     10.54374      3.58206        -0.738431      0.083253      0.062369
O     12.47271     10.43466     17.39634        -0.488611      0.039615     -0.065575
O      3.58206      8.50569     10.43466         0.182453      1.071726     -0.056998
O     17.39634      8.50569     10.54374        -0.154425      0.601300      0.062832
O      3.58206     12.47271     10.54374         0.094548     -0.445980      0.029371
O     17.39634     12.47271     10.43466        -0.146026     -0.585521     -0.030933
O      3.58206     10.43466      8.50569         0.069569     -0.096033      0.615459
O     17.39634     10.54374      8.50569         0.009320      0.101963      0.365346
O      3.58206     10.54374     12.47271         0.041710      0.037894     -0.507683
O     17.39634     10.43466     12.47271        -0.233625     -0.041699     -0.650455
O     10.43466      8.50569      3.58206        -0.042047      0.438804      0.139508
O     10.54374      8.50569     17.39634        -0.081672      0.752042     -0.224228
O     10.54374     12.47271      3.58206         0.018266     -0.968404      0.100032
O     10.43466     12.47271     17.39634         0.074605     -0.856215     -0.233889
O      8.50569      3.58206     10.43466         0.595141      0.147394     -0.056540
O      8.50569     17.39634     10.54374         0.550238     -0.177999     -0.000841
O     12.47271      3.58206     10.54374        -0.620138      0.192799      0.004135
O     12.47271     17.39634     10.43466        -0.288560      0.054321     -0.044594
O     11.90042     11.90042     19.56718        -0.271396     -0.315258      0.213407
O     19.56718     19.56718     19.56718         0.327825      0.298791      0.221150
O     19.56718     11.90042     11.90042         0.317219     -0.259257     -0.235280
O     11.90042     19.56718     11.90042        -0.248682      0.301274     -0.338289
O      9.45224      1.03696      9.45224         0.000432      0.061426     -0.153245
O      1.03696      9.45224      9.45224         0.078063     -0.066553     -0.191859
O      1.03696      1.03696      1.03696         0.111185      0.171369      0.011826
O      9.45224      9.45224      1.03696        -0.103319     -0.115336     -0.004031
Zr     10.48920      2.52580     10.48920        -0.081779     -0.201689     -0.005848
Zr     10.48920     18.45260     10.48920        -0.095985      0.172372      0.227938
Zr     10.48920     10.48920      2.52580        -0.055546     -0.461751     -0.167943
Zr     10.48920     10.48920     18.45260        -0.100142      0.056149      0.497583
Zr      2.52580     10.48920     10.48920        -0.322459      0.279266      0.354740
Zr     18.45260     10.48920     10.48920         0.158376      0.001475     -0.064266
Pd     13.65330      8.94997      9.14159        -0.044362     -0.009623     -0.003515
Pd      5.73562      9.72733      9.90392        -0.009845      0.019849      0.028946
Pd      6.93882     11.22573     11.76051        -0.047637      0.055978     -0.009759
Pd     12.18318     13.07937      7.33794        -0.015564      0.034707      0.057026
Pd     12.17869      7.80617      7.13597        -0.041271      0.041184     -0.039828
Pd      8.29027      7.08982      6.53379         0.016302     -0.012296     -0.009872
Pd     10.81213     11.30874      5.56853         0.037559      0.021015      0.019668
Pd     14.70951      8.53197      6.70223        -0.076854      0.010680      0.052237
Pd      9.73453     11.74038      8.08323        -0.065922     -0.001399     -0.018570
Pd      6.66169      6.79940     12.32367         0.031055     -0.002657     -0.030781
Pd      6.46058      7.50668      8.33269        -0.046876     -0.007364     -0.011078
Pd      7.05440      8.96229     13.79606        -0.001633     -0.029402     -0.001414
Pd     11.73818      6.56885      9.45442        -0.023845     -0.032146     -0.055832
Pd      9.83763      9.26027      6.87097        -0.044171      0.009124      0.016476
Pd      9.04506     13.91279      9.46648         0.025333      0.050829     -0.057040
Pd     10.13778      7.09246     11.44003        -0.022260      0.001744      0.060488
Pd     10.61529      8.99158      9.46420        -0.018492     -0.006878      0.037155
Pd      9.40390     11.22195     10.68599        -0.036693     -0.014398     -0.043908
Pd      9.00168      6.95381      9.07165        -0.077687      0.033577      0.035124
Pd      8.87148      7.08349     13.73959        -0.047704     -0.028605     -0.007175
Pd      8.10478      8.81643     11.31350         0.044921      0.014868      0.032234
Pd     12.08083     10.46635      7.70297        -0.073642      0.034378      0.088923
Pd      7.20361     12.00595      9.22418        -0.010699      0.004178     -0.051213
Pd      8.08847      9.55849      8.74761        -0.040440      0.010242      0.012966
Pd     14.28116      6.50915      8.46797        -0.023746     -0.012924     -0.034695
Pd     12.56727      8.31180     11.50286         0.022236      0.014111      0.047697
Pd      8.86339     11.37345     13.52346        -0.037716      0.029954     -0.059457
Pd     13.87261     11.90449      9.07378         0.044238      0.042522     -0.034035
Pd     12.84465     10.67191     13.12391         0.021720     -0.028887      0.013922
Pd     14.67880     10.34340     11.18215        -0.002983      0.006111     -0.011866
Pd     12.03039     10.75155     10.64212        -0.012696     -0.037976     -0.071389
Pd     11.47890     13.16174      9.88489        -0.043632      0.018732     -0.010347
Pd     13.53027     12.90626     11.67714         0.062831     -0.087824      0.027498
Pd     11.00940     12.60060     12.47862         0.027637     -0.003884     -0.009103
Pd     11.12882     11.40994     14.94845        -0.026784     -0.022403     -0.061015
Pd     10.46145      9.47785     12.66609         0.056448      0.009995     -0.038475
Pd      9.43742      9.36954     15.16317         0.031112     -0.023391     -0.013685
Pd      8.55180     13.48769     12.01115         0.024147      0.007174      0.059816
