152
# total energy = -1004.34992189 eVH     10.35389      5.87395      7.64558        -0.140104      0.176544      0.647382
H     10.62451     15.10445      7.64558        -0.252800     -0.143978      0.633423
H     10.62451      5.87395     13.33282         0.437168      0.039258     -0.920482
H     10.35389     15.10445     13.33282         0.064241     -0.184851     -0.532777
H      7.64558     10.35389      5.87395         0.383808      0.057144      0.133113
H      7.64558     10.62451     15.10445         0.803444      0.569318      0.002123
H     13.33282     10.62451      5.87395        -0.450165      0.004798      0.232417
H     13.33282     10.35389     15.10445        -0.774138     -0.215003      0.023668
H      5.87395      7.64558     10.35389         0.120839      1.813329      0.165025
H     15.10445      7.64558     10.62451        -0.084671      0.498667      0.226236
H      5.87395     13.33282     10.62451         0.209521     -0.622601     -0.017685
H     15.10445     13.33282     10.35389         0.229346     -1.415274     -0.403649
H      5.87395     10.35389      7.64558         0.117634      0.043431      0.528913
H     15.10445     10.62451      7.64558        -0.178503      0.970638      1.417804
H      5.87395     10.62451     13.33282        -0.088988      0.554101     -1.339672
H     15.10445     10.35389     13.33282         0.118020     -0.197836     -0.768376
H     10.35389      7.64558      5.87395         0.330265      1.301126      0.162084
H     10.62451      7.64558     15.10445         0.549847      0.798315     -0.089700
H     10.62451     13.33282      5.87395        -0.596450     -0.782730      0.256403
H     10.35389     13.33282     15.10445        -0.216130     -0.525048     -0.330104
H      7.64558      5.87395     10.35389         1.169263     -0.232823     -0.079130
H      7.64558     15.10445     10.62451         0.806877     -0.201968     -0.034440
H     13.33282      5.87395     10.62451        -0.597715      0.116452      0.653972
H     13.33282     15.10445     10.35389        -0.454093     -0.022581     -0.180411
H     12.45634     12.45634     19.01126         0.272096      0.247814     -0.231797
H     19.01126     19.01126     19.01126        -0.265874     -0.269577     -0.218383
H     19.01126     12.45634     12.45634        -0.277022      0.252842      0.230812
H     12.45634     19.01126     12.45634         0.250070     -0.281068      0.232440
C     10.35284      5.61067      6.59456        -0.138020     -0.804921     -0.510678
C     10.62556     15.36773      6.59456         0.114884      0.321033     -0.208344
C     10.62556      5.61067     14.38384        -0.059388     -0.538655      0.593753
C     10.35284     15.36773     14.38384         0.001606      0.245518      0.519196
C      6.59456     10.35284      5.61067        -0.562041      0.067261     -0.387061
C      6.59456     10.62556     15.36773        -0.976839      0.231679      0.742653
C     14.38384     10.62556      5.61067         0.751578      0.038660     -0.939918
C     14.38384     10.35284     15.36773         0.909528     -0.117719      0.416514
C      5.61067      6.59456     10.35284        -0.883291     -1.042722     -0.434414
C     15.36773      6.59456     10.62556         0.700172      0.033752     -0.252716
C      5.61067     14.38384     10.62556        -0.237707      0.705452      0.016630
C     15.36773     14.38384     10.35284         0.299731      1.387225      0.013507
C      5.61067     10.35284      6.59456        -0.277726      0.020642     -0.694581
C     15.36773     10.62556      6.59456         0.433810     -0.373139     -1.050600
C      5.61067     10.62556     14.38384        -0.394742      0.000311      1.101904
C     15.36773     10.35284     14.38384         0.427820     -0.056025      0.873137
C     10.35284      6.59456      5.61067        -0.084324     -0.987984     -0.373117
C     10.62556      6.59456     15.36773         0.064670     -0.705028      0.518241
C     10.62556     14.38384      5.61067         0.149286      1.021960     -0.410317
C     10.35284     14.38384     15.36773        -0.019136      0.982984      0.485647
C      6.59456      5.61067     10.35284        -0.594946     -1.255705      0.097790
C      6.59456     15.36773     10.62556        -0.935492      0.164884      0.111592
C     14.38384      5.61067     10.62556        -0.131465     -0.506367     -0.335616
C     14.38384     15.36773     10.35284         0.186429      0.652364     -0.071390
C     10.40319      3.19606      7.29314         0.004854      0.788074     -0.635403
C     10.35913      4.25547      6.23373         0.020810     -0.529230      0.116843
C      0.08601      7.29314      7.29314        -0.021063     -0.997820     -0.251803
C      0.13007      6.23373      6.23373        -0.057813      0.414809      0.364053
C      0.08601      3.19606      3.19606         0.051115      1.253919      0.177990
C      0.13007      4.25547      4.25547        -0.011624     -0.366984     -0.452161
C     10.40319      7.29314      3.19606        -0.009788     -0.542993      0.230003
C     10.35913      6.23373      4.25547        -0.020938      0.129758     -0.688810
C      7.29314     10.40319      3.19606        -0.367423      0.024675      0.334357
C      6.23373     10.35913      4.25547         0.220510      0.080059     -0.098555
C      7.29314      0.08601      7.29314        -1.079013     -0.082346     -0.393895
C      6.23373      0.13007      6.23373         0.640328     -0.187480      0.388795
C      3.19606      0.08601      3.19606         1.150351     -0.018647      0.315452
C      4.25547      0.13007      4.25547        -0.602009     -0.157924     -0.202365
C      3.19606     10.40319      7.29314         0.555388      0.031481     -0.268841
C      4.25547     10.35913      6.23373        -0.227811      0.090659      0.210048
C      3.19606      7.29314     10.40319         0.316690     -0.637061      0.037184
C      4.25547      6.23373     10.35913        -1.064159      0.057627      0.179708
C      7.29314      7.29314      0.08601        -0.490816     -0.482783     -0.020172
C      6.23373      6.23373      0.13007         0.505779      0.315528      0.027031
C      3.19606      3.19606      0.08601         0.591032      0.430497     -0.022166
C      4.25547      4.25547      0.13007        -0.064406     -0.764155     -0.106195
C      7.29314      3.19606     10.40319        -0.400654      0.494260      0.048801
C      6.23373      4.25547     10.35913         0.572354     -0.744357      0.190932
O     10.43466      3.58206      8.50569         0.027207      0.138730      0.562839
O     10.54374     17.39634      8.50569         0.050741     -0.031781      0.300029
O     10.54374      3.58206     12.47271        -0.001252     -0.065791     -0.181484
O     10.43466     17.39634     12.47271        -0.037905     -0.116451     -0.417634
O      8.50569     10.43466      3.58206         0.506795     -0.036452      0.111959
O      8.50569     10.54374     17.39634         0.836645     -0.074333     -0.169749
O     12.47271     10.54374      3.58206        -0.868024      0.134233      0.120711
O     12.47271     10.43466     17.39634        -0.617540      0.028493     -0.170452
O      3.58206      8.50569     10.43466         0.179855      0.720731     -0.022699
O     17.39634      8.50569     10.54374        -0.143320      0.662406      0.023721
O      3.58206     12.47271     10.54374         0.108094     -0.554436      0.054897
O     17.39634     12.47271     10.43466        -0.171736     -0.593350     -0.048673
O      3.58206     10.43466      8.50569         0.085278     -0.045149      0.407435
O     17.39634     10.54374      8.50569         0.042810      0.094767      0.365397
O      3.58206     10.54374     12.47271        -0.014889      0.032174     -0.257269
O     17.39634     10.43466     12.47271        -0.139591     -0.029979     -0.507583
O     10.43466      8.50569      3.58206        -0.030778      0.617350      0.176897
O     10.54374      8.50569     17.39634        -0.097528      0.810540     -0.202215
O     10.54374     12.47271      3.58206         0.105834     -0.961069      0.159596
O     10.43466     12.47271     17.39634         0.051505     -0.632098     -0.142123
O      8.50569      3.58206     10.43466         0.573908      0.144812     -0.049405
O      8.50569     17.39634     10.54374         0.578649     -0.156862      0.013267
O     12.47271      3.58206     10.54374        -0.722162      0.146101      0.014385
O     12.47271     17.39634     10.43466        -0.489129     -0.108133     -0.031150
O     11.90042     11.90042     19.56718        -0.326858     -0.275980      0.244268
O     19.56718     19.56718     19.56718         0.296844      0.319575      0.212029
O     19.56718     11.90042     11.90042         0.344949     -0.277235     -0.245687
O     11.90042     19.56718     11.90042        -0.276281      0.351427     -0.236498
O      9.45224      1.03696      9.45224        -0.029048      0.092283     -0.131201
O      1.03696      9.45224      9.45224         0.058462     -0.025144     -0.121161
O      1.03696      1.03696      1.03696         0.064750      0.097285      0.098649
O      9.45224      9.45224      1.03696        -0.042675     -0.031432      0.084083
Zr     10.48920      2.52580     10.48920        -0.072733     -0.223496      0.104845
Zr     10.48920     18.45260     10.48920         0.027034      0.061148      0.109263
Zr     10.48920     10.48920      2.52580        -0.321107     -0.318637     -0.379861
Zr     10.48920     10.48920     18.45260         0.164199     -0.015171      0.392363
Zr      2.52580     10.48920     10.48920        -0.156236     -0.004554     -0.067283
Zr     18.45260     10.48920     10.48920         0.152240     -0.030486      0.115096
Pd     12.85200      8.39786      9.82258        -0.009459     -0.075936      0.033105
Pd      6.55848      9.56317     10.40302        -0.081098     -0.016277     -0.107663
Pd      6.93697     11.70003     11.83220         0.055379      0.029337      0.041827
Pd     12.31618     13.50738      7.22646         0.025090     -0.095101      0.043880
Pd     12.11410      7.92262      7.17599        -0.023247     -0.027726     -0.030619
Pd      8.49861      7.31998      6.88465         0.029056     -0.024303     -0.034362
Pd     11.45371     11.49603      5.64287         0.002449     -0.033739      0.037985
Pd     14.51614      8.88700      7.83414         0.057121     -0.005199     -0.090946
Pd      9.83590     11.79205      7.93586         0.030963      0.017640      0.010469
Pd      7.08267      7.14455     12.00335        -0.114603     -0.073558     -0.151346
Pd      6.42283      7.52809      8.44955        -0.066209      0.031701      0.051246
Pd      7.27709      9.25053     13.47084         0.023753     -0.041939      0.079861
Pd     11.41384      6.20909      9.22309         0.020839      0.030272      0.017988
Pd      9.98285      9.55409      6.44311         0.013933     -0.007048      0.040500
Pd      9.09895     13.97601      9.38145        -0.024347     -0.007771     -0.020880
Pd     10.91098      7.32709     11.52109         0.008216      0.016949     -0.043804
Pd     10.41195      9.07972      9.16790        -0.049215      0.021775     -0.043174
Pd      9.40075     11.53752     10.55870        -0.026275      0.001203     -0.029279
Pd      8.87938      7.08668      9.57128        -0.031070     -0.039171      0.027230
Pd      9.12142      7.35757     13.58594         0.074001      0.007276      0.034569
Pd      8.92162      9.13181     11.39194         0.042842      0.047805      0.018879
Pd     12.26125     10.58465      8.00721        -0.017248     -0.026099     -0.064091
Pd      7.20062     11.97269      9.14745         0.028601      0.002530      0.012650
Pd      8.08502      9.65319      8.25701        -0.001854      0.001003      0.100088
Pd     14.03898      6.36535      8.50633        -0.052057      0.055966      0.013973
Pd     13.30525      8.45779     12.37962        -0.071093     -0.009305     -0.003492
Pd      9.08953     11.38699     13.29054         0.006606      0.047543     -0.061715
Pd     14.00412     12.29677      8.85312        -0.057829     -0.002074      0.011477
Pd     13.17905     11.08071     13.10791        -0.012238     -0.020850      0.063276
Pd     14.49437     10.34306     10.63353         0.053385      0.020031      0.080723
Pd     11.87486     10.66949     10.77881        -0.031990     -0.030417      0.001220
Pd     11.55495     13.12395      9.70519        -0.008823     -0.005605     -0.010010
Pd     13.64898     12.99554     11.48557        -0.010169      0.038282      0.023208
Pd     11.16419     12.77152     12.35740         0.067205     -0.016761      0.005380
Pd     11.23987     11.56865     14.86168         0.040838     -0.040045     -0.034488
Pd     10.99542      9.52625     13.04977        -0.015729      0.012708     -0.059076
Pd      9.48332      9.55349     15.24408         0.000391     -0.004251      0.049511
Pd      8.74648     13.78098     12.03985        -0.014997     -0.056345     -0.005557
