26
# total energy = -205.61066040 eVC      0.70331      1.25069      7.50000         0.000981      0.035745     -0.000000
C     10.79599      6.56619      7.50000        -0.027873      0.012859     -0.000000
C      0.73826     11.42995      7.50000        -0.011616     -0.027139     -0.000000
C     11.53084      5.33473      7.50000        -0.000981     -0.035745     -0.000000
C      1.43816      0.01923      7.50000         0.027873     -0.012859     -0.000000
C     11.49589     -4.84453      7.50000         0.011616      0.027139     -0.000000
C     10.79644     -3.65054      7.50000        -0.008123      0.012141      0.000000
C     10.85593      4.12614      7.50000         0.002919     -0.014709      0.000000
C      2.82749      0.04322      7.50000        -0.010868      0.005375      0.000000
C      1.43771     10.23596      7.50000         0.008123     -0.012141     -0.000000
C      1.37822      2.45928      7.50000        -0.002919      0.014709     -0.000000
C      9.40666      6.54220      7.50000         0.010868     -0.005375      0.000000
N      7.76532      0.25910      7.50000        -0.015329      0.010175     -0.000000
N      4.46883      6.32632      7.50000         0.015329     -0.010175     -0.000000
N      4.01001      0.08426      7.50000        -0.022189     -0.005180      0.000000
N     10.23022     -2.61153      7.50000        -0.000392      0.014261     -0.000000
N     10.29630      3.08355      7.50000        -0.002351     -0.005236      0.000000
N      8.22414      6.50116      7.50000         0.022189      0.005180      0.000000
N      2.00393      9.19695      7.50000         0.000392     -0.014261      0.000000
N      1.93785      3.50187      7.50000         0.002351      0.005236     -0.000000
Ir      2.99059      7.53217      7.50000         0.006811      0.012170      0.000000
Ir      2.98024      5.13144      7.50000         0.002219     -0.013781     -0.000000
Ir      6.29705      6.40872      7.50000        -0.009125      0.000983     -0.000000
Ir      9.24356     -0.94675      7.50000        -0.006811     -0.012170      0.000000
Ir      9.25391      1.45398      7.50000        -0.002219      0.013781     -0.000000
Ir      5.93710      0.17670      7.50000         0.009125     -0.000983     -0.000000
