26
# total energy = -169.64857532 eVH      0.37451      6.90708      7.50000         0.008009      0.029847     -0.000000
H      2.82372      2.05955      7.50000        -0.004334      0.014599     -0.000000
H      6.19981      6.72245      7.50000        -0.018060     -0.046529     -0.000000
H      8.93947     -1.55223      7.50000        -0.008009     -0.029847      0.000000
H      6.49027      3.29530      7.50000         0.004334     -0.014599      0.000000
H      3.11417     -1.36760      7.50000         0.018060      0.046529     -0.000000
C      8.50780      4.15880      7.50000        -0.012770     -0.050401     -0.000000
C      1.45230     -0.08392      7.50000         0.004823     -0.040919     -0.000000
C      8.71027     -3.71485      7.50000        -0.043627     -0.004765      0.000000
C      0.80618      1.19605      7.50000         0.012770      0.050401     -0.000000
C      7.86168      5.43877      7.50000        -0.004823      0.040919     -0.000000
C      0.60371      9.06970      7.50000         0.043627      0.004765      0.000000
C      8.20726     -2.36461      7.50000         0.037905      0.037284     -0.000000
C      7.54763      2.98300      7.50000        -0.001832      0.048700      0.000000
C      2.85590     -0.31506      7.50000         0.001716     -0.002684     -0.000000
C      1.10673      7.71946      7.50000        -0.037905     -0.037284     -0.000000
C      1.76635      2.37185      7.50000         0.001832     -0.048700      0.000000
C      6.45808      5.66991      7.50000        -0.001716      0.002684      0.000000
O      6.96202     -2.07968      7.50000        -0.046327      0.046882      0.000000
O      7.80875      1.78099      7.50000         0.020957     -0.037966      0.000000
O      3.86983      0.51379      7.50000         0.035761     -0.008472     -0.000000
O      2.35197      7.43453      7.50000         0.046327     -0.046882      0.000000
O      1.50523      3.57385      7.50000        -0.020957      0.037966      0.000000
O      5.44415      4.84106      7.50000        -0.035761      0.008472     -0.000000
Au      5.61728     -0.56958      7.50000         0.018927      0.057693     -0.000000
Au      3.69670      5.92443      7.50000        -0.018927     -0.057693     -0.000000
