152
# total energy = -1060.15612546 eVH     10.35389      5.87395      7.64558        -0.314358      0.101582      1.085329
H     10.62451     15.10445      7.64558         0.086440     -0.072108      0.897223
H     10.62451      5.87395     13.33282        -0.269745      0.072734     -0.782422
H     10.35389     15.10445     13.33282         0.095056     -0.302482     -0.820110
H      7.64558     10.35389      5.87395         0.893981     -0.201259      0.208192
H      7.64558     10.62451     15.10445         0.315462     -0.028719     -0.061284
H     13.33282     10.62451      5.87395        -0.885073      0.217817      0.219336
H     13.33282     10.35389     15.10445        -0.282032     -0.029029     -0.061196
H      5.87395      7.64558     10.35389         0.094213      0.419916     -0.013097
H     15.10445      7.64558     10.62451        -0.042688      0.440994     -0.027438
H      5.87395     13.33282     10.62451        -0.018754     -0.969940      0.078800
H     15.10445     13.33282     10.35389        -0.085129     -0.325609      0.002368
H      5.87395     10.35389      7.64558         0.319991      0.061867      0.370882
H     15.10445     10.62451      7.64558        -0.120668     -0.159164      0.666644
H      5.87395     10.62451     13.33282        -0.063478      0.451084     -0.598395
H     15.10445     10.35389     13.33282         0.224045     -0.632340     -0.873231
H     10.35389      7.64558      5.87395        -0.019342      0.500472      0.345226
H     10.62451      7.64558     15.10445         0.336961      0.792808     -0.004949
H     10.62451     13.33282      5.87395         0.150298     -0.569242      0.203227
H     10.35389     13.33282     15.10445         0.036354     -0.289905     -0.166626
H      7.64558      5.87395     10.35389         0.370772      0.114502      0.063201
H      7.64558     15.10445     10.62451         0.387082     -0.127439      0.180497
H     13.33282      5.87395     10.62451        -0.306578      0.137070     -0.013751
H     13.33282     15.10445     10.35389        -0.657252     -0.108202      0.138916
H     12.45634     12.45634     19.01126         0.259092      0.272250     -0.226448
H     19.01126     19.01126     19.01126        -0.247926     -0.267407     -0.244265
H     19.01126     12.45634     12.45634        -0.249048      0.271517      0.236920
H     12.45634     19.01126     12.45634         0.289841     -0.234968      0.235438
C     10.35284      5.61067      6.59456         0.402962     -0.420724     -1.358675
C     10.62556     15.36773      6.59456        -0.171836      0.610395     -0.662151
C     10.62556      5.61067     14.38384         0.365870     -0.275680      0.774883
C     10.35284     15.36773     14.38384        -0.204631      0.217540      1.019882
C      6.59456     10.35284      5.61067        -1.390926      0.031254     -0.226361
C      6.59456     10.62556     15.36773        -0.668629      0.064659      0.357099
C     14.38384     10.62556      5.61067         1.310730     -0.185990     -0.629241
C     14.38384     10.35284     15.36773         0.318660     -0.131400      0.350262
C      5.61067      6.59456     10.35284        -0.274396     -0.670429     -0.029741
C     15.36773      6.59456     10.62556         0.408934     -0.860604      0.027041
C      5.61067     14.38384     10.62556        -0.145865      1.193644     -0.220648
C     15.36773     14.38384     10.35284         0.503517      0.703619     -0.037613
C      5.61067     10.35284      6.59456        -0.373398     -0.102751     -0.783817
C     15.36773     10.62556      6.59456         0.400859      0.108450     -0.679994
C      5.61067     10.62556     14.38384        -0.412333     -0.161669      1.219505
C     15.36773     10.35284     14.38384         0.234838      0.223827      1.413174
C     10.35284      6.59456      5.61067        -0.069508     -0.745839     -0.546033
C     10.62556      6.59456     15.36773        -0.143192     -0.985231      0.375376
C     10.62556     14.38384      5.61067        -0.494826      0.380617     -0.738325
C     10.35284     14.38384     15.36773        -0.175048      0.746501      0.497996
C      6.59456      5.61067     10.35284        -0.561390     -0.334366      0.003756
C      6.59456     15.36773     10.62556        -0.360455      0.447380      0.065165
C     14.38384      5.61067     10.62556         0.433359     -0.312306      0.008152
C     14.38384     15.36773     10.35284         1.131258      0.488052     -0.078972
C     10.40319      3.19606      7.29314        -0.007237      0.776713     -0.335204
C     10.35913      4.25547      6.23373         0.022565     -0.379313      0.291470
C      0.08601      7.29314      7.29314        -0.018570     -0.380703     -0.506543
C      0.13007      6.23373      6.23373        -0.047451      0.881943      0.094048
C      0.08601      3.19606      3.19606        -0.007262      0.695057      0.260157
C      0.13007      4.25547      4.25547         0.046172     -0.266206     -0.548332
C     10.40319      7.29314      3.19606        -0.063946     -1.112590      0.621328
C     10.35913      6.23373      4.25547        -0.047106      0.346422     -0.201380
C      7.29314     10.40319      3.19606        -1.091533     -0.054587      0.201960
C      6.23373     10.35913      4.25547         0.377868      0.101791     -0.519817
C      7.29314      0.08601      7.29314        -0.478945      0.029024     -0.443000
C      6.23373      0.13007      6.23373         0.180150      0.122456      0.120926
C      3.19606      0.08601      3.19606         0.697782      0.022899      0.172984
C      4.25547      0.13007      4.25547        -0.173027     -0.050971     -0.363479
C      3.19606     10.40319      7.29314         0.366788     -0.026320     -0.951734
C      4.25547     10.35913      6.23373        -0.127993     -0.054805      0.114689
C      3.19606      7.29314     10.40319         0.617317     -0.400305      0.002672
C      4.25547      6.23373     10.35913        -0.115215      0.177117      0.011078
C      7.29314      7.29314      0.08601        -0.429555     -0.295928     -0.015099
C      6.23373      6.23373      0.13007         0.151545      0.155067     -0.064315
C      3.19606      3.19606      0.08601         0.294319      0.493108     -0.024925
C      4.25547      4.25547      0.13007        -0.406445     -0.241013     -0.031409
C      7.29314      3.19606     10.40319        -0.284449      0.595666     -0.009820
C      6.23373      4.25547     10.35913         0.015618     -0.093536      0.014719
O     10.43466      3.58206      8.50569        -0.026506      0.075979      0.304278
O     10.54374     17.39634      8.50569         0.064398     -0.122909      0.592512
O     10.54374      3.58206     12.47271         0.029205      0.101867     -0.398730
O     10.43466     17.39634     12.47271         0.094408     -0.061536     -0.433363
O      8.50569     10.43466      3.58206         0.733937     -0.072518      0.016472
O      8.50569     10.54374     17.39634         0.534697      0.061710     -0.104225
O     12.47271     10.54374      3.58206        -0.653378      0.112966      0.209774
O     12.47271     10.43466     17.39634        -0.279117      0.004230      0.036824
O      3.58206      8.50569     10.43466         0.034024      0.444827     -0.062683
O     17.39634      8.50569     10.54374        -0.053995      0.446806      0.056348
O      3.58206     12.47271     10.54374         0.104404     -0.588163      0.004028
O     17.39634     12.47271     10.43466        -0.181953     -0.743020     -0.049591
O      3.58206     10.43466      8.50569         0.209385     -0.060690      0.808112
O     17.39634     10.54374      8.50569        -0.073793      0.072319      0.490926
O      3.58206     10.54374     12.47271        -0.002142     -0.005788     -0.263645
O     17.39634     10.43466     12.47271         0.034827     -0.010007     -0.234494
O     10.43466      8.50569      3.58206        -0.108318      0.532954     -0.099618
O     10.54374      8.50569     17.39634         0.058781      0.511401     -0.085399
O     10.54374     12.47271      3.58206         0.102656     -0.637369      0.129024
O     10.43466     12.47271     17.39634        -0.066364     -0.688311     -0.274290
O      8.50569      3.58206     10.43466         0.396579      0.022581     -0.046476
O      8.50569     17.39634     10.54374         0.641470     -0.153547      0.045955
O     12.47271      3.58206     10.54374        -0.517619      0.121473      0.028454
O     12.47271     17.39634     10.43466        -0.624548     -0.123267      0.041024
O     11.90042     11.90042     19.56718        -0.278808     -0.304235      0.222960
O     19.56718     19.56718     19.56718         0.309764      0.322775      0.297590
O     19.56718     11.90042     11.90042         0.283812     -0.325146     -0.235912
O     11.90042     19.56718     11.90042        -0.314097      0.229331     -0.201533
O      9.45224      1.03696      9.45224        -0.073807      0.086764     -0.080624
O      1.03696      9.45224      9.45224         0.100461     -0.108002     -0.062249
O      1.03696      1.03696      1.03696         0.079547      0.054074      0.097724
O      9.45224      9.45224      1.03696        -0.058618     -0.125711      0.135883
Zr     10.48920      2.52580     10.48920         0.044285     -0.093774      0.122532
Zr     10.48920     18.45260     10.48920        -0.183752      0.246766     -0.359751
Zr     10.48920     10.48920      2.52580         0.111857      0.358013     -0.343737
Zr     10.48920     10.48920     18.45260        -0.077725     -0.259250      0.236531
Zr      2.52580     10.48920     10.48920        -0.239961      0.132524      0.244115
Zr     18.45260     10.48920     10.48920         0.195953     -0.138746     -0.018931
Pd      9.36183     14.30536      9.30978        -0.006177      0.005888     -0.028730
Pd      8.59089     13.63633     13.05215         0.003357      0.001505      0.028401
Pd     12.02612     14.40651      8.74515         0.000926     -0.006475      0.002897
Pd     12.75295     12.87667     10.68173        -0.047099     -0.014400      0.007219
Pd     12.12021      7.19212     12.67631         0.003093      0.003627     -0.004122
Pd     11.15833     14.90479     11.45108        -0.013667      0.018673     -0.009534
Pd     10.02940     12.55893     11.08533        -0.014025      0.029677     -0.001056
Pd     13.48287     12.15683      7.98400         0.005501      0.007108      0.008064
Pd     11.48131     11.54505      6.10892        -0.001037      0.010547      0.013982
Pd      7.94251      8.37459      7.52372        -0.003339     -0.026059     -0.010885
Pd      8.72057     11.75787      6.84497         0.005197      0.008314      0.026578
Pd     10.31780      9.45464      8.15293        -0.011657      0.007246      0.012501
Pd      8.49642     14.46478      6.78879        -0.007734      0.002826     -0.015427
Pd     12.39508      9.02243      6.57566        -0.012405      0.023607      0.032305
Pd      9.71920      9.61034      5.57397         0.009514      0.006209      0.002825
Pd      6.81415      9.45204     12.13802         0.002579     -0.020563     -0.012411
Pd     12.18023      6.74357      7.95385         0.005416     -0.006619     -0.005485
Pd      5.91460     10.48288      9.68993         0.011045      0.001516      0.006933
Pd      7.55076      7.23947     13.40490        -0.011032     -0.014727     -0.011938
Ir     11.73615      9.77653     13.06676        -0.038379     -0.013026      0.021971
Ir     13.55292      9.05736     11.47767        -0.013722      0.008760      0.013744
Ir      9.42521      8.86159     14.01044        -0.019467      0.019560      0.000525
Ir     10.50092     11.02166     14.88258        -0.014330     -0.052248      0.048722
Ir      7.26831     12.01549     11.34173        -0.040771      0.015459     -0.027699
Ir     14.65210     10.91201     10.15271        -0.017030      0.023507      0.041914
Ir     12.16775     10.56727      9.67422        -0.008334      0.015887     -0.021906
Ir      8.73996     10.99598     12.98685         0.096532      0.002522      0.053591
Ir     10.10831      9.92006     11.17346        -0.000709      0.015329     -0.028716
Ir     13.73558     11.41997     12.48883        -0.024966     -0.000104      0.045670
Ir     11.58814     12.35532     13.08663        -0.095563     -0.022765     -0.004968
Ir      8.49962     11.10080      9.33614        -0.033382      0.026172     -0.013442
Ir     11.59399      8.02711     10.14353         0.015358      0.005916      0.014062
Ir      7.21642     13.03416      8.65754         0.046861     -0.001119      0.011504
Ir      9.54890      6.96245      9.23996         0.011148     -0.006755      0.002867
Ir      8.05548      8.76558     10.05715        -0.012578      0.011876     -0.007134
Ir     10.72370     12.12372      8.50660         0.009702     -0.007459     -0.025370
Ir      9.51473      7.57547     11.75587         0.012496     -0.000532     -0.004127
Ir     13.67232      8.79240      8.84490         0.025266     -0.002992      0.020169
