152
# total energy = -1060.16460801 eVH     10.35389      5.87395      7.64558        -0.309116      0.102187      1.083823
H     10.62451     15.10445      7.64558         0.094954     -0.070093      0.889948
H     10.62451      5.87395     13.33282        -0.272403      0.073764     -0.784142
H     10.35389     15.10445     13.33282         0.098812     -0.301709     -0.823620
H      7.64558     10.35389      5.87395         0.894965     -0.204093      0.207302
H      7.64558     10.62451     15.10445         0.314812     -0.026577     -0.063356
H     13.33282     10.62451      5.87395        -0.884805      0.219950      0.219399
H     13.33282     10.35389     15.10445        -0.283205     -0.029822     -0.059094
H      5.87395      7.64558     10.35389         0.092935      0.422999     -0.009741
H     15.10445      7.64558     10.62451        -0.045536      0.437716     -0.028617
H      5.87395     13.33282     10.62451        -0.015779     -0.971167      0.079640
H     15.10445     13.33282     10.35389        -0.088580     -0.329230      0.001397
H      5.87395     10.35389      7.64558         0.318272      0.061980      0.371608
H     15.10445     10.62451      7.64558        -0.118944     -0.157273      0.668266
H      5.87395     10.62451     13.33282        -0.064079      0.453173     -0.604865
H     15.10445     10.35389     13.33282         0.225889     -0.628074     -0.883099
H     10.35389      7.64558      5.87395        -0.019156      0.499176      0.344542
H     10.62451      7.64558     15.10445         0.327253      0.786814     -0.009815
H     10.62451     13.33282      5.87395         0.148539     -0.568615      0.202793
H     10.35389     13.33282     15.10445         0.032780     -0.292337     -0.165297
H      7.64558      5.87395     10.35389         0.369967      0.114041      0.063126
H      7.64558     15.10445     10.62451         0.389639     -0.127686      0.179530
H     13.33282      5.87395     10.62451        -0.307089      0.137412     -0.014449
H     13.33282     15.10445     10.35389        -0.657008     -0.108924      0.138803
H     12.45634     12.45634     19.01126         0.259308      0.272552     -0.225760
H     19.01126     19.01126     19.01126        -0.248404     -0.267086     -0.244078
H     19.01126     12.45634     12.45634        -0.248980      0.271741      0.236729
H     12.45634     19.01126     12.45634         0.289996     -0.234769      0.235480
C     10.35284      5.61067      6.59456         0.399654     -0.415239     -1.356287
C     10.62556     15.36773      6.59456        -0.174281      0.608580     -0.659409
C     10.62556      5.61067     14.38384         0.366070     -0.272906      0.781358
C     10.35284     15.36773     14.38384        -0.205779      0.226904      1.027341
C      6.59456     10.35284      5.61067        -1.393557      0.032268     -0.226402
C      6.59456     10.62556     15.36773        -0.664562      0.065368      0.356714
C     14.38384     10.62556      5.61067         1.313509     -0.186283     -0.630824
C     14.38384     10.35284     15.36773         0.320047     -0.133659      0.356035
C      5.61067      6.59456     10.35284        -0.273868     -0.671838     -0.030957
C     15.36773      6.59456     10.62556         0.409250     -0.853248      0.027579
C      5.61067     14.38384     10.62556        -0.149158      1.195612     -0.217926
C     15.36773     14.38384     10.35284         0.500213      0.708013     -0.037330
C      5.61067     10.35284      6.59456        -0.369975     -0.102836     -0.772538
C     15.36773     10.62556      6.59456         0.399884      0.107508     -0.675791
C      5.61067     10.62556     14.38384        -0.404258     -0.163186      1.221433
C     15.36773     10.35284     14.38384         0.226781      0.224110      1.409214
C     10.35284      6.59456      5.61067        -0.069461     -0.743845     -0.542754
C     10.62556      6.59456     15.36773        -0.140492     -0.979006      0.374731
C     10.62556     14.38384      5.61067        -0.495703      0.387637     -0.737285
C     10.35284     14.38384     15.36773        -0.173072      0.730627      0.491442
C      6.59456      5.61067     10.35284        -0.561810     -0.337116      0.003735
C      6.59456     15.36773     10.62556        -0.361815      0.444654      0.065990
C     14.38384      5.61067     10.62556         0.435355     -0.310617      0.007587
C     14.38384     15.36773     10.35284         1.128832      0.481836     -0.080701
C     10.40319      3.19606      7.29314        -0.008673      0.802728     -0.340597
C     10.35913      4.25547      6.23373         0.024420     -0.378000      0.294576
C      0.08601      7.29314      7.29314        -0.018172     -0.384002     -0.503456
C      0.13007      6.23373      6.23373        -0.047309      0.873863      0.093394
C      0.08601      3.19606      3.19606        -0.006827      0.696212      0.259514
C      0.13007      4.25547      4.25547         0.047663     -0.267531     -0.548573
C     10.40319      7.29314      3.19606        -0.063872     -1.112675      0.629005
C     10.35913      6.23373      4.25547        -0.047869      0.348720     -0.204733
C      7.29314     10.40319      3.19606        -1.091858     -0.054807      0.202260
C      6.23373     10.35913      4.25547         0.379166      0.101943     -0.524517
C      7.29314      0.08601      7.29314        -0.489420      0.028804     -0.434564
C      6.23373      0.13007      6.23373         0.179243      0.121012      0.119029
C      3.19606      0.08601      3.19606         0.701734      0.022709      0.170069
C      4.25547      0.13007      4.25547        -0.173678     -0.051527     -0.365562
C      3.19606     10.40319      7.29314         0.379995     -0.027194     -0.952479
C      4.25547     10.35913      6.23373        -0.129442     -0.053689      0.115750
C      3.19606      7.29314     10.40319         0.617161     -0.398493      0.002400
C      4.25547      6.23373     10.35913        -0.114655      0.178308      0.010358
C      7.29314      7.29314      0.08601        -0.428935     -0.292776     -0.014998
C      6.23373      6.23373      0.13007         0.147088      0.154652     -0.063864
C      3.19606      3.19606      0.08601         0.293714      0.493228     -0.024770
C      4.25547      4.25547      0.13007        -0.405249     -0.241362     -0.031033
C      7.29314      3.19606     10.40319        -0.283580      0.593882     -0.009193
C      6.23373      4.25547     10.35913         0.016038     -0.093887      0.015813
O     10.43466      3.58206      8.50569        -0.026447      0.069319      0.298833
O     10.54374     17.39634      8.50569         0.063501     -0.122516      0.588294
O     10.54374      3.58206     12.47271         0.028968      0.101747     -0.397573
O     10.43466     17.39634     12.47271         0.094295     -0.062205     -0.438663
O      8.50569     10.43466      3.58206         0.733847     -0.073150      0.016885
O      8.50569     10.54374     17.39634         0.545188      0.063474     -0.103150
O     12.47271     10.54374      3.58206        -0.657336      0.113729      0.211689
O     12.47271     10.43466     17.39634        -0.282909      0.003716      0.038146
O      3.58206      8.50569     10.43466         0.033199      0.443941     -0.064368
O     17.39634      8.50569     10.54374        -0.055013      0.445982      0.056699
O      3.58206     12.47271     10.54374         0.105198     -0.588100      0.003565
O     17.39634     12.47271     10.43466        -0.183729     -0.741227     -0.047538
O      3.58206     10.43466      8.50569         0.207194     -0.060289      0.804809
O     17.39634     10.54374      8.50569        -0.067948      0.070501      0.480506
O      3.58206     10.54374     12.47271        -0.004739     -0.004233     -0.261623
O     17.39634     10.43466     12.47271         0.033015     -0.009597     -0.234355
O     10.43466      8.50569      3.58206        -0.108160      0.533097     -0.099631
O     10.54374      8.50569     17.39634         0.060526      0.511381     -0.082071
O     10.54374     12.47271      3.58206         0.102811     -0.637723      0.129500
O     10.43466     12.47271     17.39634        -0.064542     -0.705093     -0.283391
O      8.50569      3.58206     10.43466         0.396375      0.023281     -0.046830
O      8.50569     17.39634     10.54374         0.639369     -0.154235      0.046034
O     12.47271      3.58206     10.54374        -0.516052      0.121320      0.028618
O     12.47271     17.39634     10.43466        -0.624654     -0.123458      0.041432
O     11.90042     11.90042     19.56718        -0.278146     -0.302800      0.222330
O     19.56718     19.56718     19.56718         0.309581      0.321960      0.298081
O     19.56718     11.90042     11.90042         0.283426     -0.324743     -0.235231
O     11.90042     19.56718     11.90042        -0.314549      0.229552     -0.201391
O      9.45224      1.03696      9.45224        -0.076871      0.090918     -0.076664
O      1.03696      9.45224      9.45224         0.103914     -0.111075     -0.059958
O      1.03696      1.03696      1.03696         0.078802      0.055332      0.098298
O      9.45224      9.45224      1.03696        -0.059459     -0.124945      0.137045
Zr     10.48920      2.52580     10.48920         0.042557     -0.097093      0.122949
Zr     10.48920     18.45260     10.48920        -0.181622      0.246953     -0.360892
Zr     10.48920     10.48920      2.52580         0.113431      0.355627     -0.345145
Zr     10.48920     10.48920     18.45260        -0.080671     -0.262786      0.234688
Zr      2.52580     10.48920     10.48920        -0.241879      0.128632      0.245978
Zr     18.45260     10.48920     10.48920         0.196009     -0.138030     -0.025940
Pd      9.36022     14.30559      9.30602         0.003186      0.028531     -0.021565
Pd      8.59392     13.64794     13.04718         0.010319     -0.002573      0.008666
Pd     12.02516     14.39884      8.74912         0.012081      0.006849      0.004557
Pd     12.74832     12.87749     10.69395        -0.033901     -0.005313      0.038675
Pd     12.11986      7.18991     12.67556         0.001066     -0.004667      0.000793
Pd     11.15221     14.90992     11.44854        -0.019694      0.018233     -0.013391
Pd     10.02854     12.55997     11.07824        -0.026917      0.028935     -0.016666
Pd     13.48090     12.15490      7.98624         0.010674      0.004923      0.004930
Pd     11.48061     11.54542      6.10854         0.009434      0.009922     -0.014465
Pd      7.94117      8.37322      7.52114         0.003087     -0.019820      0.004847
Pd      8.71789     11.75840      6.84471        -0.006671     -0.000626     -0.013791
Pd     10.31829      9.45254      8.15326        -0.025535     -0.003217      0.013509
Pd      8.49428     14.46486      6.78696        -0.007992      0.006080     -0.016817
Pd     12.39469      9.02379      6.57542        -0.006325      0.018405      0.018910
Pd      9.71848      9.61168      5.57452         0.001567      0.004117      0.002820
Pd      6.82124      9.45655     12.14283         0.032506      0.007024     -0.000040
Pd     12.18140      6.74710      7.95609         0.009425     -0.001011     -0.000114
Pd      5.91220     10.48268      9.69540         0.000433     -0.008417      0.009377
Pd      7.54965      7.23785     13.40586         0.008983      0.002124     -0.015432
Ir     11.72856      9.77374     13.06967        -0.020198     -0.019215      0.007532
Ir     13.54776      9.05826     11.47830        -0.010243      0.006312      0.015710
Ir      9.42061      8.86669     14.01203        -0.023886      0.010484     -0.004308
Ir     10.50465     11.00229     14.91212        -0.008142     -0.055367      0.036473
Ir      7.26942     12.01524     11.34125         0.011148     -0.010451      0.022094
Ir     14.64349     10.91907     10.16148        -0.007514      0.024844      0.036354
Ir     12.16155     10.57446      9.67707         0.001997     -0.015018     -0.009692
Ir      8.75677     11.00937     12.99150         0.039543      0.019690     -0.021527
Ir     10.10491      9.91857     11.16827        -0.025920      0.018736     -0.020198
Ir     13.72374     11.41811     12.50156        -0.037036      0.007957      0.067864
Ir     11.56767     12.34590     13.09616        -0.098430     -0.045914      0.016467
Ir      8.49628     11.09921      9.33294        -0.002194     -0.027956      0.015326
Ir     11.59370      8.02709     10.14594         0.001222     -0.003068      0.007167
Ir      7.21835     13.03408      8.65923         0.009918      0.020287      0.009935
Ir      9.54879      6.96179      9.23848         0.005860      0.011274      0.002936
Ir      8.05180      8.76345     10.05685         0.005881      0.021922     -0.007203
Ir     10.72060     12.12284      8.50006        -0.016210     -0.000814      0.000031
Ir      9.51447      7.57425     11.75530        -0.005941      0.010961      0.004204
Ir     13.66941      8.80241      8.84586         0.024412      0.009154      0.030829
