152
# total energy = -1022.52818186 eVH     10.35389      5.87395      7.64558         0.433136     -0.030651      1.029765
H     10.62451     15.10445      7.64558         0.026853     -0.056005      0.640475
H     10.62451      5.87395     13.33282         0.133156      0.110255     -0.626449
H     10.35389     15.10445     13.33282        -0.263281     -0.067968     -0.553984
H      7.64558     10.35389      5.87395         0.374820     -0.058659      0.192226
H      7.64558     10.62451     15.10445         0.622794     -0.142129     -0.116004
H     13.33282     10.62451      5.87395        -1.015859     -0.476136      0.010279
H     13.33282     10.35389     15.10445        -0.480261     -0.068079     -0.049742
H      5.87395      7.64558     10.35389         0.048645      1.242613     -0.085421
H     15.10445      7.64558     10.62451        -0.168817      0.396203     -0.076322
H      5.87395     13.33282     10.62451         0.144947     -0.386957     -0.066623
H     15.10445     13.33282     10.35389        -0.080792     -0.997978     -0.314208
H      5.87395     10.35389      7.64558         0.119607     -0.011718      0.413583
H     15.10445     10.62451      7.64558         0.112107     -0.112434      0.778127
H      5.87395     10.62451     13.33282         0.266876     -0.052580     -0.419953
H     15.10445     10.35389     13.33282        -0.173458      0.051460     -0.633143
H     10.35389      7.64558      5.87395         0.185412      0.909669      0.055291
H     10.62451      7.64558     15.10445         0.005676      0.700786     -0.112102
H     10.62451     13.33282      5.87395         0.306708     -0.524224      0.191942
H     10.35389     13.33282     15.10445        -0.188440     -0.922456     -0.119414
H      7.64558      5.87395     10.35389         0.490368      0.052556     -0.159731
H      7.64558     15.10445     10.62451         0.917036     -0.192492      0.249172
H     13.33282      5.87395     10.62451        -0.426052      0.192990     -0.069061
H     13.33282     15.10445     10.35389        -0.997735     -0.052428      0.262934
H     12.45634     12.45634     19.01126         0.272166      0.258709     -0.219675
H     19.01126     19.01126     19.01126        -0.249658     -0.235494     -0.261604
H     19.01126     12.45634     12.45634        -0.244146      0.273188      0.235072
H     12.45634     19.01126     12.45634         0.206607     -0.284800      0.257182
C     10.35284      5.61067      6.59456        -0.061927     -0.478160     -0.715231
C     10.62556     15.36773      6.59456         0.022271      0.333427     -0.916781
C     10.62556      5.61067     14.38384        -0.008547     -0.282991      0.742085
C     10.35284     15.36773     14.38384         0.221882      0.710158      0.072538
C      6.59456     10.35284      5.61067        -0.563446     -0.036750     -0.246284
C      6.59456     10.62556     15.36773        -0.855316      0.133120      0.403972
C     14.38384     10.62556      5.61067         1.027620      0.290062     -0.311109
C     14.38384     10.35284     15.36773         0.755934     -0.116099      0.423419
C      5.61067      6.59456     10.35284        -0.387022     -0.923043      0.207452
C     15.36773      6.59456     10.62556         0.202609     -0.481424      0.040098
C      5.61067     14.38384     10.62556        -0.249680      0.381870     -0.009647
C     15.36773     14.38384     10.35284         0.321201      0.328339      0.257305
C      5.61067     10.35284      6.59456        -0.332047      0.011103     -0.824093
C     15.36773     10.62556      6.59456         0.534391     -0.165098     -1.198197
C      5.61067     10.62556     14.38384        -0.506717      0.008911      1.072886
C     15.36773     10.35284     14.38384         0.544329     -0.195684      1.325572
C     10.35284      6.59456      5.61067        -0.009512     -1.103045     -0.712570
C     10.62556      6.59456     15.36773         0.055087     -0.880576      0.374969
C     10.62556     14.38384      5.61067        -0.036258      1.379197     -0.719689
C     10.35284     14.38384     15.36773         0.056736      0.641972      0.587818
C      6.59456      5.61067     10.35284        -0.106143     -0.901715      0.133777
C      6.59456     15.36773     10.62556        -1.727437      0.488232      0.053831
C     14.38384      5.61067     10.62556         0.556662     -0.225702      0.004190
C     14.38384     15.36773     10.35284         0.454476      0.504800     -0.215891
C     10.40319      3.19606      7.29314         0.017817      0.971972     -0.230924
C     10.35913      4.25547      6.23373        -0.036378     -0.291921      0.739834
C      0.08601      7.29314      7.29314        -0.010963     -0.223157     -0.462892
C      0.13007      6.23373      6.23373        -0.014048      0.145100      0.173795
C      0.08601      3.19606      3.19606        -0.023204      0.709180      0.151233
C      0.13007      4.25547      4.25547        -0.104006     -0.192197     -0.159644
C     10.40319      7.29314      3.19606        -0.003118     -0.652115      0.486595
C     10.35913      6.23373      4.25547         0.002077      0.563900     -0.314179
C      7.29314     10.40319      3.19606        -0.402382      0.018076      0.896525
C      6.23373     10.35913      4.25547         0.237589     -0.006804     -0.178913
C      7.29314      0.08601      7.29314        -0.305920     -0.053505     -0.241330
C      6.23373      0.13007      6.23373         0.289605     -0.088541      0.247832
C      3.19606      0.08601      3.19606         0.335597     -0.057985      1.347861
C      4.25547      0.13007      4.25547        -0.188748     -0.013850     -0.438855
C      3.19606     10.40319      7.29314         0.746930      0.017768     -0.259107
C      4.25547     10.35913      6.23373        -0.119247      0.039350      0.122501
C      3.19606      7.29314     10.40319         0.530708     -1.238422      0.040629
C      4.25547      6.23373     10.35913        -0.754340      0.717881      0.027362
C      7.29314      7.29314      0.08601        -0.647745     -0.189605     -0.023868
C      6.23373      6.23373      0.13007         0.173157      0.259218     -0.013292
C      3.19606      3.19606      0.08601         0.256906      0.264270     -0.019260
C      4.25547      4.25547      0.13007        -0.054928     -0.034148      0.013989
C      7.29314      3.19606     10.40319        -0.345343      0.705729      0.029502
C      6.23373      4.25547     10.35913         0.720792     -0.214222      0.029295
O     10.43466      3.58206      8.50569        -0.054920      0.023300      0.284111
O     10.54374     17.39634      8.50569        -0.020359     -0.194380      0.615810
O     10.54374      3.58206     12.47271         0.066889      0.046363     -0.291558
O     10.43466     17.39634     12.47271        -0.023882     -0.126966     -0.556945
O      8.50569     10.43466      3.58206         0.393068     -0.008801     -0.011725
O      8.50569     10.54374     17.39634         0.465336      0.059022     -0.144444
O     12.47271     10.54374      3.58206        -0.217605      0.067651     -0.116159
O     12.47271     10.43466     17.39634        -0.849517      0.026322     -0.209168
O      3.58206      8.50569     10.43466         0.033492      0.886417      0.041658
O     17.39634      8.50569     10.54374        -0.030039      0.353688      0.080576
O      3.58206     12.47271     10.54374         0.063451     -0.431684      0.059123
O     17.39634     12.47271     10.43466        -0.157084     -0.717293      0.011821
O      3.58206     10.43466      8.50569        -0.055032     -0.061270      0.226919
O     17.39634     10.54374      8.50569        -0.134386      0.043047      0.441304
O      3.58206     10.54374     12.47271        -0.059535     -0.060086     -0.867654
O     17.39634     10.43466     12.47271        -0.193690      0.043760     -0.766669
O     10.43466      8.50569      3.58206         0.026544      0.673789      0.199862
O     10.54374      8.50569     17.39634         0.055008      0.397590     -0.069998
O     10.54374     12.47271      3.58206        -0.046162     -0.741259      0.249748
O     10.43466     12.47271     17.39634         0.061827     -0.848901     -0.279904
O      8.50569      3.58206     10.43466         0.495231      0.092904     -0.041366
O      8.50569     17.39634     10.54374         0.657853     -0.234599     -0.057393
O     12.47271      3.58206     10.54374        -0.510594      0.157922      0.041158
O     12.47271     17.39634     10.43466        -0.475218     -0.031601     -0.044366
O     11.90042     11.90042     19.56718        -0.308108     -0.310511      0.259040
O     19.56718     19.56718     19.56718         0.292324      0.274793      0.321248
O     19.56718     11.90042     11.90042         0.281391     -0.329310     -0.232550
O     11.90042     19.56718     11.90042        -0.220545      0.294459     -0.242363
O      9.45224      1.03696      9.45224        -0.070714      0.061396     -0.065419
O      1.03696      9.45224      9.45224         0.070221     -0.142544     -0.050055
O      1.03696      1.03696      1.03696         0.045819      0.030363      0.189980
O      9.45224      9.45224      1.03696        -0.035000     -0.085778      0.134734
Zr     10.48920      2.52580     10.48920        -0.000150     -0.072352     -0.028099
Zr     10.48920     18.45260     10.48920         0.031674      0.289770     -0.065932
Zr     10.48920     10.48920      2.52580        -0.068954     -0.031892     -0.367375
Zr     10.48920     10.48920     18.45260        -0.152826     -0.199751      0.299279
Zr      2.52580     10.48920     10.48920        -0.322352      0.344133     -0.483633
Zr     18.45260     10.48920     10.48920         0.213263      0.039728     -0.302105
Pd      9.04273     10.27774     13.46048         0.007103      0.008419     -0.032713
Pd     10.63830      9.72322     11.22201         0.011560     -0.001130     -0.067376
Pd     13.76882      8.53703     12.79802        -0.004124      0.002532     -0.023607
Pd     11.01508     11.13148     15.10136        -0.006136     -0.012152     -0.021024
Pd     12.81956     11.15972     13.05133         0.007838      0.016978      0.007778
Pd     14.99790     10.82064     11.37641        -0.021866      0.040505     -0.007927
Pd      6.67984      7.40570     12.31315         0.000762      0.002465      0.004822
Pd      9.28544      7.33525     10.24283        -0.032796     -0.041338     -0.026011
Pd      9.24762      7.64458     12.90612         0.007831     -0.005029     -0.018049
Pd     11.72116      7.26477     11.61669        -0.007469     -0.001387     -0.037241
Pd     11.47916      7.84536      8.94731        -0.079862      0.080343     -0.013802
Pd      7.21668     11.83772     12.05909         0.008875     -0.013761     -0.033188
Pd      8.92013     14.65169      9.33536        -0.017674     -0.001264     -0.003243
Pd      8.44136     12.72954     14.35231        -0.006875     -0.020483     -0.009789
Pd     13.23046     13.94374      8.69378         0.057772      0.030007     -0.034387
Pd     10.78405     13.09761      8.44269         0.024696      0.060873      0.008117
Pd     14.04202     11.40887      9.00183         0.014698      0.024513     -0.031885
Pd      8.64366     14.09376     12.07533        -0.008752     -0.000303      0.003871
Pd     12.23307     13.74778     13.97895        -0.000259      0.007829      0.011967
Pd     11.15820     14.37034     11.04150        -0.009546      0.014273      0.012547
Pd     14.05770     13.44052     12.13667         0.011183      0.041299      0.021267
Pd     12.25273     12.07134     10.68620         0.042926      0.016237     -0.006470
Pd     12.48520     11.98060      6.84531         0.026530      0.084468     -0.047968
Pd     13.58052      8.97563      7.87195        -0.007450     -0.026615      0.028145
Pd      6.93673      8.40663      8.95827        -0.041145      0.032179     -0.028576
Pd      5.51439      9.86803     11.35113         0.019588      0.006541     -0.020296
Pd      8.92445      9.92988      8.08485         0.060305     -0.054267      0.086404
Pd      9.03213      7.39438      7.57723        -0.078857     -0.048573     -0.019799
Pd      9.41669     11.99596     10.44769         0.035317      0.017428     -0.013052
Pd     11.35301     10.49335      8.78603         0.060264      0.085903     -0.029461
Pd     11.08686      9.36973      6.46639         0.019182     -0.011460     -0.002799
Pd      9.69152     11.73127      6.25416         0.018463     -0.032373      0.029710
Ir     11.37318      9.07272     13.56230         0.001274      0.008117     -0.044269
Ir     13.07100      9.36976     10.45131        -0.001568      0.019963     -0.017607
Ir     10.51952     12.34271     12.70464         0.019373      0.013830      0.012634
Ir      7.03026     10.96941      9.59648         0.004259     -0.025950      0.014728
Ir      8.20002     12.46658      8.20764         0.059057      0.002419     -0.003115
Ir      8.09608      9.35992     11.19295        -0.029567      0.009410     -0.037544
