152
# total energy = -1006.00283924 eVH     10.35389      5.87395      7.64558         0.259343      0.034961      0.637365
H     10.62451     15.10445      7.64558        -0.107395     -0.141359      0.512593
H     10.62451      5.87395     13.33282         0.484288      0.121511     -0.583552
H     10.35389     15.10445     13.33282         0.078278     -0.183382     -0.555872
H      7.64558     10.35389      5.87395         0.372350      0.092487      0.162353
H      7.64558     10.62451     15.10445         0.696172      0.471768     -0.039887
H     13.33282     10.62451      5.87395        -0.532231      0.421203      0.075469
H     13.33282     10.35389     15.10445        -0.803754     -0.094097      0.009176
H      5.87395      7.64558     10.35389         0.239950      0.687236     -0.401205
H     15.10445      7.64558     10.62451        -0.095226      0.479963      0.283187
H      5.87395     13.33282     10.62451         0.159541     -0.696042     -0.156071
H     15.10445     13.33282     10.35389        -0.010925     -1.023388     -0.326629
H      5.87395     10.35389      7.64558         0.252159      0.320508      0.757934
H     15.10445     10.62451      7.64558        -0.107905      0.403935      0.759394
H      5.87395     10.62451     13.33282         0.134326      0.327911     -0.690524
H     15.10445     10.35389     13.33282        -0.055443     -0.071379     -0.687532
H     10.35389      7.64558      5.87395         0.395452      1.054028     -0.008704
H     10.62451      7.64558     15.10445         0.535930      0.536942     -0.120740
H     10.62451     13.33282      5.87395        -0.398726     -0.846724      0.186563
H     10.35389     13.33282     15.10445        -0.045105     -0.433642     -0.216748
H      7.64558      5.87395     10.35389         0.848650      0.096610     -0.289722
H      7.64558     15.10445     10.62451         0.837622     -0.196218      0.012881
H     13.33282      5.87395     10.62451        -0.805819      0.197162      0.586675
H     13.33282     15.10445     10.35389        -0.443957     -0.111782     -0.130287
H     12.45634     12.45634     19.01126         0.235298      0.270074     -0.240039
H     19.01126     19.01126     19.01126        -0.262488     -0.240657     -0.261108
H     19.01126     12.45634     12.45634        -0.266923      0.268761      0.218338
H     12.45634     19.01126     12.45634         0.231927     -0.255419      0.278857
C     10.35284      5.61067      6.59456        -0.434023     -0.741220      0.206098
C     10.62556     15.36773      6.59456         0.061362      0.368467     -0.295293
C     10.62556      5.61067     14.38384        -0.334080     -0.360040     -0.305913
C     10.35284     15.36773     14.38384        -0.009305      0.330912      0.543739
C      6.59456     10.35284      5.61067        -0.204068     -0.002061     -0.400167
C      6.59456     10.62556     15.36773        -0.264743     -0.220488      0.809642
C     14.38384     10.62556      5.61067        -0.274313     -0.401468     -0.516226
C     14.38384     10.35284     15.36773         0.977297     -0.053919      0.256193
C      5.61067      6.59456     10.35284        -0.540149      0.005193      0.182411
C     15.36773      6.59456     10.62556         0.524393      0.025547     -0.251105
C      5.61067     14.38384     10.62556        -0.341600      0.971870      0.076298
C     15.36773     14.38384     10.35284         0.319061      1.033599      0.054342
C      5.61067     10.35284      6.59456        -0.178709     -0.325899     -0.625841
C     15.36773     10.62556      6.59456         0.447446     -0.290423      0.118728
C      5.61067     10.62556     14.38384        -0.729128     -0.355101     -0.058960
C     15.36773     10.35284     14.38384         0.387262     -0.060816      1.008089
C     10.35284      6.59456      5.61067        -0.204010     -0.197870     -0.657329
C     10.62556      6.59456     15.36773        -0.267945      0.122642      0.447084
C     10.62556     14.38384      5.61067         0.206591      1.066388     -0.347604
C     10.35284     14.38384     15.36773         0.027702      0.536634      0.433988
C      6.59456      5.61067     10.35284        -0.178087     -0.632801      0.232623
C      6.59456     15.36773     10.62556        -1.025139      0.301448      0.079522
C     14.38384      5.61067     10.62556         0.493549     -0.543576     -0.364971
C     14.38384     15.36773     10.35284         0.214641      0.454172     -0.102556
C     10.40319      3.19606      7.29314         0.006913      0.695741     -0.488556
C     10.35913      4.25547      6.23373         0.085097     -0.730425     -0.015656
C      0.08601      7.29314      7.29314        -0.043946     -0.410470     -0.308820
C      0.13007      6.23373      6.23373        -0.022532      0.082093      0.567553
C      0.08601      3.19606      3.19606        -0.018046      1.248293      0.279936
C      0.13007      4.25547      4.25547         0.048805     -0.776207     -0.152382
C     10.40319      7.29314      3.19606         0.009120     -0.346252      0.357456
C     10.35913      6.23373      4.25547         0.027001      0.014719     -0.902999
C      7.29314     10.40319      3.19606        -0.363192      0.019206      0.566321
C      6.23373     10.35913      4.25547         0.207950      0.048817     -0.130145
C      7.29314      0.08601      7.29314        -0.525461     -0.064198     -0.372097
C      6.23373      0.13007      6.23373         0.680679     -0.047046      0.491931
C      3.19606      0.08601      3.19606         0.668295     -0.037385      0.565085
C      4.25547      0.13007      4.25547        -0.572854     -0.080533     -0.554895
C      3.19606     10.40319      7.29314         0.484184     -0.021372     -0.780903
C      4.25547     10.35913      6.23373        -0.507820      0.028327      0.202477
C      3.19606      7.29314     10.40319         0.283411     -1.251981      0.037812
C      4.25547      6.23373     10.35913        -0.698883      0.099534      0.152828
C      7.29314      7.29314      0.08601        -0.406827     -0.370891     -0.028214
C      6.23373      6.23373      0.13007         0.468460      0.213644     -0.021394
C      3.19606      3.19606      0.08601         0.502286      0.371859     -0.039169
C      4.25547      4.25547      0.13007        -0.149186     -0.651352     -0.034541
C      7.29314      3.19606     10.40319        -0.321734      0.420744      0.074840
C      6.23373      4.25547     10.35913         0.254990     -0.696087      0.135932
O     10.43466      3.58206      8.50569        -0.014325      0.101736      0.508880
O     10.54374     17.39634      8.50569         0.036499     -0.174678      0.482052
O     10.54374      3.58206     12.47271         0.057712     -0.082768     -0.188336
O     10.43466     17.39634     12.47271        -0.038295     -0.182831     -0.567849
O      8.50569     10.43466      3.58206         0.339119      0.004671      0.036658
O      8.50569     10.54374     17.39634         0.632744      0.033235     -0.145441
O     12.47271     10.54374      3.58206        -0.675023      0.082580      0.091676
O     12.47271     10.43466     17.39634        -0.439822      0.027251     -0.111682
O      3.58206      8.50569     10.43466         0.182121      1.030360     -0.049038
O     17.39634      8.50569     10.54374        -0.162636      0.539007      0.076347
O      3.58206     12.47271     10.54374         0.083323     -0.361893      0.048805
O     17.39634     12.47271     10.43466        -0.157763     -0.545804     -0.022757
O      3.58206     10.43466      8.50569         0.075765     -0.061510      0.594274
O     17.39634     10.54374      8.50569        -0.110810      0.065811      0.521396
O      3.58206     10.54374     12.47271         0.057371      0.052166     -0.534754
O     17.39634     10.43466     12.47271        -0.217026     -0.040014     -0.591695
O     10.43466      8.50569      3.58206        -0.038923      0.474134      0.134169
O     10.54374      8.50569     17.39634         0.047989      0.529686     -0.161121
O     10.54374     12.47271      3.58206        -0.003931     -1.003520      0.207141
O     10.43466     12.47271     17.39634         0.042010     -0.735629     -0.174449
O      8.50569      3.58206     10.43466         0.506173      0.146795     -0.053783
O      8.50569     17.39634     10.54374         0.485911     -0.198132      0.013757
O     12.47271      3.58206     10.54374        -0.642513      0.236075      0.008285
O     12.47271     17.39634     10.43466        -0.212843      0.068416     -0.056557
O     11.90042     11.90042     19.56718        -0.239781     -0.288879      0.247754
O     19.56718     19.56718     19.56718         0.310005      0.295067      0.300070
O     19.56718     11.90042     11.90042         0.290076     -0.264961     -0.233244
O     11.90042     19.56718     11.90042        -0.242663      0.290869     -0.336757
O      9.45224      1.03696      9.45224        -0.020665      0.086256     -0.072657
O      1.03696      9.45224      9.45224         0.090761     -0.091142     -0.138858
O      1.03696      1.03696      1.03696         0.088833      0.190237      0.047132
O      9.45224      9.45224      1.03696        -0.111993     -0.100137      0.030767
Zr     10.48920      2.52580     10.48920        -0.132156     -0.291678     -0.035976
Zr     10.48920     18.45260     10.48920        -0.072515      0.214144      0.095454
Zr     10.48920     10.48920      2.52580         0.063250     -0.411428     -0.250211
Zr     10.48920     10.48920     18.45260        -0.269855     -0.089953      0.324400
Zr      2.52580     10.48920     10.48920        -0.375663      0.238581      0.303788
Zr     18.45260     10.48920     10.48920         0.241094     -0.000270     -0.222516
Pd     13.60512      8.99277      9.19729        -0.005994     -0.003336     -0.006344
Pd      5.62902      9.86579     10.12606         0.002317      0.000421     -0.007136
Pd      6.77097     11.84619     11.70828        -0.000563     -0.000920     -0.000620
Pd     12.05919     12.99395      7.35771        -0.005597     -0.001380      0.000460
Pd     11.87409      7.73885      7.45242        -0.000834     -0.005274     -0.003773
Pd      8.31686      6.82674      6.52292         0.001338     -0.010010     -0.004096
Pd     10.56209     11.16788      5.65553        -0.016573     -0.000689      0.000857
Pd     14.39889      8.54700      6.72647        -0.002404     -0.000274     -0.001860
Pd      9.66287     11.73044      8.15042         0.001099     -0.004049      0.008255
Pd      6.72453      6.78639     12.34214        -0.001180     -0.002345      0.001623
Pd      6.62533      8.28513      7.87001         0.011967      0.010667     -0.016799
Pd      6.52285      8.49005     14.39255         0.000168     -0.001722      0.002921
Pd     11.48172      6.50860      9.95016        -0.002197     -0.004533      0.000630
Pd      9.45610      9.19892      7.17287        -0.001269     -0.004225      0.000869
Pd      8.97850     13.99229      9.36831        -0.000409     -0.002876      0.006032
Pd      9.43026      7.36600     11.69586        -0.004320      0.000252     -0.004406
Pd     10.63226      8.95630      9.67298         0.003698     -0.002152     -0.007020
Pd      9.34121     11.57271     10.73877        -0.002627      0.003156      0.005294
Pd      8.85857      7.07222      9.10497        -0.002841      0.000266     -0.004935
Pd      8.55409      6.58022     14.23264         0.000883     -0.000832     -0.001378
Pd      7.61449      9.31807     12.03704        -0.004626      0.000175      0.002773
Pd     11.93725     10.37453      7.70826        -0.000750     -0.007028     -0.011761
Pd      7.12817     12.01511      9.06664         0.003801     -0.003871      0.000311
Pd      8.15155      9.62569      9.48096         0.003249     -0.000940      0.009033
Pd     14.00882      6.50223      8.52546        -0.000422     -0.002447     -0.000331
Pd     12.62958      8.40862     11.56380        -0.003895     -0.002353     -0.001903
Pd      8.75913     11.57023     13.41379        -0.001096     -0.000922      0.003448
Pd     13.86769     11.90831      8.96926        -0.002412     -0.002120     -0.003416
Pd     12.93121     10.70166     13.07653        -0.002635     -0.005393     -0.000529
Pd     14.76036     10.42778     11.12178        -0.002769     -0.004844     -0.002201
Pd     12.04753     10.89642     10.53916        -0.008837     -0.000717     -0.002191
Pd     11.44841     13.34910      9.92565         0.000371      0.003474      0.002937
Pd     13.59673     12.91137     11.62650         0.002245     -0.004299     -0.000346
Pd     11.11278     12.62978     12.54477        -0.001171      0.000080      0.002199
Pd     10.94155     11.06760     14.81779         0.002553     -0.000859      0.001608
Pd     10.49685      9.71883     12.37797        -0.005550      0.000779     -0.001798
Pd      9.08369      9.14145     14.43688         0.002108     -0.000586      0.003496
Pd      8.79477     13.86556     12.07077        -0.002485     -0.001065      0.007608
