152
# total energy = -1093.15496480 eVH     10.35389      5.87395      7.64558        -0.017031     -0.122931      1.204540
H     10.62451     15.10445      7.64558        -0.183078      0.084336      1.391637
H     10.62451      5.87395     13.33282         0.146631     -0.037517     -1.074152
H     10.35389     15.10445     13.33282         0.023090     -0.045487     -0.879974
H      7.64558     10.35389      5.87395         0.522090      0.024743     -0.091799
H      7.64558     10.62451     15.10445         0.404066     -0.001648      0.005720
H     13.33282     10.62451      5.87395        -0.670547     -0.035404      0.002523
H     13.33282     10.35389     15.10445        -0.431089     -0.012716     -0.015641
H      5.87395      7.64558     10.35389        -0.144585      1.341291      0.055047
H     15.10445      7.64558     10.62451        -0.016255      0.452509      0.032260
H      5.87395     13.33282     10.62451        -0.075604     -0.226201      0.040756
H     15.10445     13.33282     10.35389         0.192157     -1.527903      0.110808
H      5.87395     10.35389      7.64558        -0.083988     -0.749133      0.493705
H     15.10445     10.62451      7.64558         0.446036      0.801073      0.204468
H      5.87395     10.62451     13.33282        -0.008534     -0.181344     -0.267851
H     15.10445     10.35389     13.33282        -0.061581      0.234883     -0.169983
H     10.35389      7.64558      5.87395        -0.116789      0.436012      0.079672
H     10.62451      7.64558     15.10445         0.050139      0.501616      0.283291
H     10.62451     13.33282      5.87395         0.083718     -0.413904     -0.197517
H     10.35389     13.33282     15.10445        -0.141933     -0.560414      0.176237
H      7.64558      5.87395     10.35389         0.485132     -0.033762     -0.048176
H      7.64558     15.10445     10.62451         0.299938      0.029166     -0.028079
H     13.33282      5.87395     10.62451        -0.197399     -0.085129     -0.007878
H     13.33282     15.10445     10.35389        -0.503820      0.094638     -0.017912
H     12.45634     12.45634     19.01126         0.265288      0.247569     -0.244857
H     19.01126     19.01126     19.01126        -0.263121     -0.242878     -0.252034
H     19.01126     12.45634     12.45634        -0.265466      0.261763      0.232788
H     12.45634     19.01126     12.45634         0.274460     -0.255342      0.226222
C     10.35284      5.61067      6.59456        -0.158318     -0.312693     -1.786332
C     10.62556     15.36773      6.59456         0.434163      0.125318     -1.861262
C     10.62556      5.61067     14.38384        -0.340831     -0.127106      1.700181
C     10.35284     15.36773     14.38384         0.234594      0.150629      1.635408
C      6.59456     10.35284      5.61067        -0.922949     -0.115693     -0.317692
C      6.59456     10.62556     15.36773        -0.829155     -0.008357      0.116396
C     14.38384     10.62556      5.61067         1.034345      0.040461     -0.231752
C     14.38384     10.35284     15.36773         0.775848     -0.022090      0.169541
C      5.61067      6.59456     10.35284        -0.092600     -1.657358      0.061594
C     15.36773      6.59456     10.62556         0.313273     -0.916553      0.037930
C      5.61067     14.38384     10.62556        -0.417573      0.793980      0.041770
C     15.36773     14.38384     10.35284         0.054981      1.811054     -0.078272
C      5.61067     10.35284      6.59456        -0.754684      0.279872     -1.832545
C     15.36773     10.62556      6.59456         0.745015     -0.209783     -1.938706
C      5.61067     10.62556     14.38384        -0.674361      0.092937      1.621566
C     15.36773     10.35284     14.38384         0.566246     -0.061788      1.412036
C     10.35284      6.59456      5.61067         0.025918     -1.546191     -0.757649
C     10.62556      6.59456     15.36773        -0.049069     -1.914457      0.702861
C     10.62556     14.38384      5.61067         0.084051      1.826640     -0.851324
C     10.35284     14.38384     15.36773         0.036700      1.851397      0.623153
C      6.59456      5.61067     10.35284        -0.870680     -0.812465     -0.031871
C      6.59456     15.36773     10.62556        -1.025567      0.570556      0.070644
C     14.38384      5.61067     10.62556         0.962952     -0.693456      0.089914
C     14.38384     15.36773     10.35284         0.882699      0.885289     -0.000537
C     10.40319      3.19606      7.29314        -0.005923      0.532447     -0.575056
C     10.35913      4.25547      6.23373        -0.010348     -0.835546      0.535830
C      0.08601      7.29314      7.29314         0.014621     -0.464685     -0.572324
C      0.13007      6.23373      6.23373         0.058391      0.852070      0.451583
C      0.08601      3.19606      3.19606         0.026749      0.687363      0.456436
C      0.13007      4.25547      4.25547        -0.042730     -0.734887     -0.481441
C     10.40319      7.29314      3.19606        -0.016447     -0.798060      0.478329
C     10.35913      6.23373      4.25547         0.008796      0.567778     -0.509597
C      7.29314     10.40319      3.19606        -0.311302     -0.006684      0.503796
C      6.23373     10.35913      4.25547         0.185189     -0.078441     -0.152168
C      7.29314      0.08601      7.29314        -0.252794     -0.030746     -0.384735
C      6.23373      0.13007      6.23373         0.153386     -0.096198      0.371111
C      3.19606      0.08601      3.19606         0.417620      0.013287      0.476175
C      4.25547      0.13007      4.25547        -0.204013      0.069803     -0.202217
C      3.19606     10.40319      7.29314         0.223646      0.032696     -0.500743
C      4.25547     10.35913      6.23373        -0.185325      0.106161      0.347020
C      3.19606      7.29314     10.40319         0.172677     -0.317554      0.007762
C      4.25547      6.23373     10.35913        -0.574156      0.179089      0.052472
C      7.29314      7.29314      0.08601        -0.585608     -0.466323      0.002856
C      6.23373      6.23373      0.13007         0.119827      0.197003     -0.058680
C      3.19606      3.19606      0.08601         0.560740      0.456393      0.004631
C      4.25547      4.25547      0.13007        -0.066802     -0.100789     -0.035194
C      7.29314      3.19606     10.40319        -0.217703      0.339255      0.009029
C      6.23373      4.25547     10.35913         0.596375     -0.250247      0.017266
O     10.43466      3.58206      8.50569         0.016308      0.237231      0.495952
O     10.54374     17.39634      8.50569        -0.029135     -0.239799      0.515037
O     10.54374      3.58206     12.47271         0.080981      0.159288     -0.392736
O     10.43466     17.39634     12.47271        -0.101345     -0.122497     -0.356297
O      8.50569     10.43466      3.58206         0.413156     -0.021311      0.075470
O      8.50569     10.54374     17.39634         0.466380      0.059639     -0.123467
O     12.47271     10.54374      3.58206        -0.502882     -0.010224      0.098230
O     12.47271     10.43466     17.39634        -0.418930     -0.053377     -0.104830
O      3.58206      8.50569     10.43466         0.166577      0.424432     -0.054917
O     17.39634      8.50569     10.54374        -0.089110      0.564088      0.047469
O      3.58206     12.47271     10.54374         0.047334     -0.531320      0.039929
O     17.39634     12.47271     10.43466        -0.174436     -0.454940     -0.024788
O      3.58206     10.43466      8.50569         0.187448     -0.015577      0.491102
O     17.39634     10.54374      8.50569        -0.125993     -0.010195      0.459379
O      3.58206     10.54374     12.47271         0.178240      0.088567     -0.478844
O     17.39634     10.43466     12.47271        -0.191062     -0.080825     -0.528371
O     10.43466      8.50569      3.58206         0.048009      0.655018      0.271493
O     10.54374      8.50569     17.39634         0.057111      0.490207     -0.211212
O     10.54374     12.47271      3.58206        -0.018944     -0.634959      0.269470
O     10.43466     12.47271     17.39634        -0.033084     -0.528146     -0.219927
O      8.50569      3.58206     10.43466         0.516762      0.151462     -0.030824
O      8.50569     17.39634     10.54374         0.620904     -0.096148      0.044391
O     12.47271      3.58206     10.54374        -0.628450      0.104115      0.034092
O     12.47271     17.39634     10.43466        -0.485844     -0.138877     -0.017498
O     11.90042     11.90042     19.56718        -0.308214     -0.283725      0.270517
O     19.56718     19.56718     19.56718         0.314795      0.271013      0.289213
O     19.56718     11.90042     11.90042         0.323496     -0.307776     -0.236232
O     11.90042     19.56718     11.90042        -0.328661      0.281745     -0.224571
O      9.45224      1.03696      9.45224        -0.032085      0.060202     -0.066478
O      1.03696      9.45224      9.45224         0.035687     -0.079501     -0.059871
O      1.03696      1.03696      1.03696         0.033014      0.051278      0.131085
O      9.45224      9.45224      1.03696        -0.025198     -0.087537      0.133566
Zr     10.48920      2.52580     10.48920        -0.106257     -0.129535     -0.010086
Zr     10.48920     18.45260     10.48920         0.110828      0.187139     -0.098984
Zr     10.48920     10.48920      2.52580        -0.009853      0.104908     -0.321532
Zr     10.48920     10.48920     18.45260        -0.030938     -0.015944      0.146610
Zr      2.52580     10.48920     10.48920        -0.046473     -0.028982     -0.051262
Zr     18.45260     10.48920     10.48920         0.092464      0.108945     -0.139970
Pd     12.93109      8.08964      7.61840        -0.015096      0.008178      0.005058
Pd      9.57437     14.56580     11.75873        -0.002870      0.017479     -0.017160
Pd     12.30959     10.87069     10.42183        -0.000975      0.010919      0.003857
Pd     14.63587      9.95837     11.59087         0.010351      0.000513     -0.021371
Pd     10.93178      9.32807      6.12590        -0.013820     -0.008234     -0.015488
Pd      6.90043      8.53542      8.97259        -0.016920      0.001639     -0.006101
Ir     10.24688     11.84089     11.75571         0.005578      0.002122     -0.002146
Ir     12.88576      8.26564     10.29373        -0.005166     -0.002616      0.011205
Ir     12.29024     10.97662      7.72116        -0.027527      0.002469      0.006138
Ir      9.68312     14.38632      9.16495        -0.001940      0.004140      0.000614
Ir     10.77040      9.17098     11.70207         0.002636      0.012869     -0.018566
Ir      8.67511     10.07502      7.75147        -0.006275      0.033466     -0.003053
Ir     13.85506     12.49828      9.04854         0.011866     -0.010953     -0.006620
Ir     11.96251     13.55929      7.82616         0.013666     -0.006179     -0.015872
Ir     14.28408      9.88699      9.01414        -0.004661      0.001425     -0.012754
Ir      9.18055      7.43933     10.36132        -0.022439     -0.000634      0.013388
Ir      8.15246     12.75977      7.83645         0.007183     -0.003045     -0.006690
Ir      9.12615      7.60151      7.79654        -0.011171      0.009000      0.005602
Ir     11.86016     13.49136     13.03098         0.005500     -0.014436     -0.007507
Ir     11.35602      6.67384     11.68620         0.002018     -0.002720      0.007448
Ir     10.23310     11.81482      9.07808         0.000579     -0.007392     -0.021936
Ir     12.86732      8.30452     12.95360        -0.003282     -0.014872      0.004360
Ir     10.79655      9.15348      8.96639        -0.022225      0.001649      0.002613
Ir     11.79007     13.57166     10.42255         0.000424     -0.005032     -0.001100
Ir     13.82923     12.57776     11.78407        -0.007546      0.011330     -0.006081
Ir     12.35737     10.96474     13.08561         0.010923      0.002799     -0.018270
Ir     10.10880     11.72149      6.49212        -0.006405     -0.010270      0.008436
Ir     11.29160      6.57138      9.18443         0.000722      0.005530      0.015778
Ir      7.17142      8.36814     11.78466        -0.014246     -0.000861      0.008890
Ir      8.17076     12.71198     10.43539        -0.016481     -0.009724     -0.008521
Ir     10.85700      9.25187     14.26038        -0.001049      0.015676     -0.000956
Ir      8.07830     12.53996     12.99075        -0.015202     -0.012855     -0.007258
Ir      6.54999     11.27081      9.06938         0.011186      0.006920     -0.021979
Ir      8.63102     10.04767     13.04378         0.010076     -0.019818     -0.007426
Ir      6.55763     10.91914     11.52886        -0.005086      0.004271      0.013449
Ir      9.10765      7.46806     13.02663        -0.003189     -0.018577     -0.012773
Ir     10.18176     11.64623     14.36275         0.001938      0.008999     -0.010039
Ir      8.69355     10.06324     10.39011         0.014539     -0.002474      0.001515
