152
# total energy = -1023.30068879 eVH     10.35389      5.87395      7.64558         0.491007      0.084455      0.720360
H     10.62451     15.10445      7.64558        -0.053709     -0.105031      0.731311
H     10.62451      5.87395     13.33282         0.144789      0.142842     -0.624509
H     10.35389     15.10445     13.33282        -0.230020     -0.096481     -0.602596
H      7.64558     10.35389      5.87395         0.304151     -0.020566      0.185812
H      7.64558     10.62451     15.10445         0.769157     -0.282608     -0.080724
H     13.33282     10.62451      5.87395        -0.756269     -0.092848      0.197348
H     13.33282     10.35389     15.10445        -0.517747     -0.132162     -0.034967
H      5.87395      7.64558     10.35389         0.208157      0.979325     -0.194214
H     15.10445      7.64558     10.62451        -0.167168      0.438776     -0.093145
H      5.87395     13.33282     10.62451         0.171078     -0.440240     -0.062754
H     15.10445     13.33282     10.35389        -0.120156     -0.914820      0.052096
H      5.87395     10.35389      7.64558         0.132948      0.102639      0.448634
H     15.10445     10.62451      7.64558         0.099954      0.009850      1.115194
H      5.87395     10.62451     13.33282         0.162139     -0.030494     -0.379905
H     15.10445     10.35389     13.33282        -0.130552     -0.076177     -0.577647
H     10.35389      7.64558      5.87395         0.043189      0.859935      0.201439
H     10.62451      7.64558     15.10445         0.004289      0.398782     -0.174995
H     10.62451     13.33282      5.87395        -0.013063     -0.560108      0.214010
H     10.35389     13.33282     15.10445        -0.454643     -0.865189     -0.100219
H      7.64558      5.87395     10.35389         0.455428      0.100497     -0.004644
H      7.64558     15.10445     10.62451         0.813773     -0.284021      0.041914
H     13.33282      5.87395     10.62451        -0.446905      0.181523     -0.060415
H     13.33282     15.10445     10.35389        -0.635126     -0.089454      0.179461
H     12.45634     12.45634     19.01126         0.250214      0.270781     -0.227863
H     19.01126     19.01126     19.01126        -0.252108     -0.234747     -0.258544
H     19.01126     12.45634     12.45634        -0.238064      0.274175      0.235213
H     12.45634     19.01126     12.45634         0.226067     -0.262243      0.247908
C     10.35284      5.61067      6.59456        -0.207998     -0.406046     -0.004580
C     10.62556     15.36773      6.59456         0.055868      0.386105     -1.061890
C     10.62556      5.61067     14.38384        -0.056604     -0.195805      0.780497
C     10.35284     15.36773     14.38384         0.056795      0.833687      0.369902
C      6.59456     10.35284      5.61067        -0.371826     -0.037691     -0.197754
C      6.59456     10.62556     15.36773        -0.960058      0.293874      0.400886
C     14.38384     10.62556      5.61067         0.433426      0.287764     -0.540237
C     14.38384     10.35284     15.36773         0.804682     -0.115975      0.415833
C      5.61067      6.59456     10.35284        -0.318511     -0.603810      0.432039
C     15.36773      6.59456     10.62556         0.160535     -0.509966      0.060508
C      5.61067     14.38384     10.62556        -0.129369      0.418416     -0.017409
C     15.36773     14.38384     10.35284         0.339161     -0.099936     -0.138589
C      5.61067     10.35284      6.59456        -0.261401     -0.019194     -0.782166
C     15.36773     10.62556      6.59456         0.628449     -0.316150     -1.349437
C      5.61067     10.62556     14.38384        -0.396951     -0.008477      0.318300
C     15.36773     10.35284     14.38384         0.540601     -0.154793      1.231480
C     10.35284      6.59456      5.61067        -0.196547     -0.517911     -0.536163
C     10.62556      6.59456     15.36773         0.040015     -0.469765      0.236964
C     10.62556     14.38384      5.61067         0.113416      1.028840     -0.469682
C     10.35284     14.38384     15.36773         0.227978      0.484225      0.601295
C      6.59456      5.61067     10.35284        -0.207613     -0.818025      0.075905
C      6.59456     15.36773     10.62556        -1.413899      0.381466      0.092736
C     14.38384      5.61067     10.62556         0.649845     -0.252938     -0.003493
C     14.38384     15.36773     10.35284        -0.438134      0.675040     -0.349623
C     10.40319      3.19606      7.29314         0.014389      0.881816     -0.322906
C     10.35913      4.25547      6.23373        -0.014535     -0.462223      0.542673
C      0.08601      7.29314      7.29314        -0.005590     -0.321270     -0.471302
C      0.13007      6.23373      6.23373         0.013483      0.095040      0.162157
C      0.08601      3.19606      3.19606        -0.012704      0.656691      0.187215
C      0.13007      4.25547      4.25547        -0.085249     -0.171049     -0.209710
C     10.40319      7.29314      3.19606        -0.001390     -0.734560      0.535729
C     10.35913      6.23373      4.25547        -0.012370      0.346859     -0.613604
C      7.29314     10.40319      3.19606        -0.317304      0.032949      0.930511
C      6.23373     10.35913      4.25547         0.182774      0.044063     -0.121575
C      7.29314      0.08601      7.29314        -0.359599     -0.036866     -0.292133
C      6.23373      0.13007      6.23373         0.379365     -0.053412      0.389287
C      3.19606      0.08601      3.19606         0.580468     -0.029980      0.574527
C      4.25547      0.13007      4.25547        -0.094952     -0.041570     -0.384136
C      3.19606     10.40319      7.29314         0.741046     -0.000330     -0.485701
C      4.25547     10.35913      6.23373        -0.177890      0.043200      0.110763
C      3.19606      7.29314     10.40319         0.610912     -1.311728     -0.021314
C      4.25547      6.23373     10.35913        -0.602677      0.869436      0.066901
C      7.29314      7.29314      0.08601        -0.620436     -0.207247     -0.015511
C      6.23373      6.23373      0.13007         0.196787      0.168825      0.007323
C      3.19606      3.19606      0.08601         0.260372      0.309584     -0.021946
C      4.25547      4.25547      0.13007        -0.064552     -0.043798      0.000137
C      7.29314      3.19606     10.40319        -0.367650      0.869798      0.009734
C      6.23373      4.25547     10.35913         1.065698      0.007996      0.003496
O     10.43466      3.58206      8.50569        -0.044719      0.035605      0.379781
O     10.54374     17.39634      8.50569        -0.032407     -0.150021      0.551780
O     10.54374      3.58206     12.47271         0.049033      0.055572     -0.303489
O     10.43466     17.39634     12.47271        -0.022854     -0.117161     -0.598483
O      8.50569     10.43466      3.58206         0.326789     -0.032538     -0.032761
O      8.50569     10.54374     17.39634         0.496786      0.042410     -0.150589
O     12.47271     10.54374      3.58206        -0.543083     -0.003674      0.127678
O     12.47271     10.43466     17.39634        -0.778760     -0.005690     -0.163620
O      3.58206      8.50569     10.43466         0.139298      1.091658      0.014703
O     17.39634      8.50569     10.54374        -0.036410      0.337524      0.070950
O      3.58206     12.47271     10.54374         0.078270     -0.488710      0.041906
O     17.39634     12.47271     10.43466        -0.161393     -0.806605      0.032808
O      3.58206     10.43466      8.50569        -0.061330     -0.068352      0.375184
O     17.39634     10.54374      8.50569        -0.123695      0.042730      0.442043
O      3.58206     10.54374     12.47271         0.075442     -0.008210     -0.559135
O     17.39634     10.43466     12.47271        -0.201406      0.055930     -0.783242
O     10.43466      8.50569      3.58206         0.046393      0.706785      0.179682
O     10.54374      8.50569     17.39634         0.067362      0.495268     -0.088830
O     10.54374     12.47271      3.58206        -0.011817     -0.738599      0.226308
O     10.43466     12.47271     17.39634         0.032197     -0.915639     -0.244349
O      8.50569      3.58206     10.43466         0.486450      0.056477     -0.032136
O      8.50569     17.39634     10.54374         0.662530     -0.248017     -0.046324
O     12.47271      3.58206     10.54374        -0.453523      0.142770      0.042984
O     12.47271     17.39634     10.43466        -0.498528      0.004870     -0.012010
O     11.90042     11.90042     19.56718        -0.282828     -0.320611      0.247423
O     19.56718     19.56718     19.56718         0.286329      0.268879      0.305597
O     19.56718     11.90042     11.90042         0.265150     -0.327598     -0.235434
O     11.90042     19.56718     11.90042        -0.271899      0.280690     -0.268486
O      9.45224      1.03696      9.45224        -0.077283      0.042557     -0.073366
O      1.03696      9.45224      9.45224         0.034393     -0.160414     -0.098789
O      1.03696      1.03696      1.03696         0.011120      0.062133      0.174869
O      9.45224      9.45224      1.03696        -0.057448     -0.094882      0.117063
Zr     10.48920      2.52580     10.48920        -0.018712     -0.084844     -0.050426
Zr     10.48920     18.45260     10.48920         0.109349      0.318252      0.005469
Zr     10.48920     10.48920      2.52580         0.016156     -0.028991     -0.409786
Zr     10.48920     10.48920     18.45260        -0.198532     -0.051424      0.422961
Zr      2.52580     10.48920     10.48920        -0.377205      0.256355     -0.016676
Zr     18.45260     10.48920     10.48920         0.250325      0.027353     -0.292989
Pd      8.86373     10.05737     13.35399        -0.130304     -0.159781     -0.059985
Pd     10.60786      9.61776     10.65815         0.283442      0.176124     -0.053018
Pd     13.66288      8.49895     12.58181         0.011603      0.144173     -0.086784
Pd     10.93202     10.82201     15.04810        -0.014316      0.059874     -0.071717
Pd     12.92533     11.13247     13.07652         0.071814     -0.025964      0.141702
Pd     15.06443     10.94177     11.33282        -0.108748     -0.019510     -0.050826
Pd      6.57982      7.78305     12.37653         0.113731      0.051295      0.010547
Pd      9.29490      7.24679      9.79925         0.068477      0.075714     -0.033518
Pd      9.24698      7.46845     12.54934        -0.004887     -0.091184      0.075220
Pd     11.64339      7.23279     11.33903         0.062115     -0.071926      0.068405
Pd     11.72673      7.92033      8.76739        -0.112563     -0.110683      0.007149
Pd      7.37084     11.76115     11.73307        -0.095186     -0.035105     -0.057630
Pd      9.25327     14.68356      9.48121        -0.086963      0.133114      0.060879
Pd      8.27464     12.49212     14.25404         0.001775      0.040283      0.045379
Pd     14.11994     14.24195      8.30822         0.000047     -0.065265      0.052617
Pd     11.55655     13.59564      8.77560        -0.048533      0.021368     -0.030958
Pd     14.17109     11.66195      8.90436        -0.113670      0.025693      0.006017
Pd      8.75152     13.99913     12.13007        -0.071795     -0.018232     -0.047181
Pd     12.20985     13.58220     14.15678         0.028890     -0.072285     -0.198297
Pd     11.36136     14.33547     11.46934         0.052197     -0.111768      0.010199
Pd     14.02905     13.53959     12.24198         0.059974      0.072631      0.059245
Pd     12.40139     12.04627     10.73486        -0.079625     -0.293248      0.224171
Pd     12.74490     12.54100      6.69338         0.055775     -0.035897     -0.068163
Pd     13.96209      8.96630      7.88245        -0.013400      0.034210      0.042688
Pd      6.96065      8.48036      8.73064        -0.029895     -0.114783     -0.159239
Pd      5.64380     10.09122     10.54832        -0.087696      0.034767      0.053124
Pd      9.40068      9.40267      7.96383         0.000997     -0.095185      0.074555
Pd      8.52460      6.97940      7.20292         0.004132     -0.115692     -0.131706
Pd      9.74947     12.08779     10.40075         0.072536      0.042540     -0.054458
Pd     11.64377     10.74196      8.40919         0.160741      0.186213      0.012049
Pd     11.63426      9.04380      6.34230        -0.014561      0.110858     -0.036835
Pd     10.13490     11.32957      6.28629         0.109834     -0.111323     -0.409772
Ir     11.22396      9.14385     13.08997        -0.018111      0.224452     -0.215056
Ir     13.18791      9.54327     10.27487         0.038120     -0.119383     -0.039505
Ir     10.50587     12.13115     12.80902         0.076667     -0.049228     -0.241135
Ir      7.68570     10.96991      9.19146         0.111682      0.204826     -0.179720
Ir      8.94916     12.59668      8.03284        -0.016198     -0.142486      0.626642
Ir      8.16693      9.28271     10.98277        -0.178703      0.017405      0.137148
