36
# total energy = -265.53031823 eVH      5.49437      0.00000      7.50000         0.011034      0.000000     -0.000000
H     10.62333     -0.00000      7.50000        -0.011034      0.000000     -0.000000
H      0.00000      5.49437      7.50000        -0.000000      0.011034     -0.000000
H      0.00000     10.62333      7.50000         0.000000     -0.011034      0.000000
C      8.79248     14.93467      7.50000         0.008792      0.001555      0.000000
C      7.32522      1.18303      7.50000        -0.008792     -0.001555      0.000000
C      1.18303      8.79248      7.50000        -0.001555      0.008792     -0.000000
C     14.93467      7.32522      7.50000         0.001555     -0.008792      0.000000
C      7.32522     14.93467      7.50000        -0.008792      0.001555      0.000000
C      8.79248      1.18303      7.50000         0.008792     -0.001555     -0.000000
C     14.93467      8.79248      7.50000         0.001555      0.008792      0.000000
C      1.18303      7.32522      7.50000        -0.001555     -0.008792     -0.000000
C      9.53391      0.00000      7.50000        -0.005219     -0.000000     -0.000000
C      6.58379     -0.00000      7.50000         0.005219      0.000000     -0.000000
C      0.00000      9.53391      7.50000         0.000000     -0.005219     -0.000000
C      0.00000      6.58379      7.50000        -0.000000      0.005219     -0.000000
C      8.05885      7.00642      7.50000         0.000000      0.019877     -0.000000
C      8.05885      9.11128      7.50000        -0.000000     -0.019877     -0.000000
C      9.11128      8.05885      7.50000        -0.019877     -0.000000     -0.000000
C      7.00642      8.05885      7.50000         0.019877     -0.000000     -0.000000
N      5.72713      8.05885      7.50000         0.012942      0.000000     -0.000000
N     10.39057      8.05885      7.50000        -0.012942      0.000000     -0.000000
N      8.05885      5.72713      7.50000        -0.000000      0.012942     -0.000000
N      8.05885     10.39057      7.50000        -0.000000     -0.012942     -0.000000
O      6.80899      2.38633      7.50000        -0.001688     -0.005365     -0.000000
O      9.30871     13.73137      7.50000         0.001688      0.005365     -0.000000
O     13.73137      6.80899      7.50000         0.005365     -0.001688      0.000000
O      2.38633      9.30871      7.50000        -0.005365      0.001688     -0.000000
O      9.30871      2.38633      7.50000         0.001688     -0.005365      0.000000
O      6.80899     13.73137      7.50000        -0.001688      0.005365      0.000000
O      2.38633      6.80899      7.50000        -0.005365     -0.001688      0.000000
O     13.73137      9.30871      7.50000         0.005365      0.001688     -0.000000
Ir      3.95327      8.05885      7.50000         0.001697      0.000000      0.000000
Ir     12.16443      8.05885      7.50000        -0.001697     -0.000000      0.000000
Ir      8.05885      3.95327      7.50000         0.000000      0.001697     -0.000000
Ir      8.05885     12.16443      7.50000        -0.000000     -0.001697     -0.000000
