152
# total energy = -1023.24048190 eVH     10.35389      5.87395      7.64558         0.486322      0.081433      0.708775
H     10.62451     15.10445      7.64558        -0.111464     -0.053604      0.809169
H     10.62451      5.87395     13.33282         0.145533      0.127119     -0.633804
H     10.35389     15.10445     13.33282        -0.175566     -0.118606     -0.544475
H      7.64558     10.35389      5.87395         0.312202     -0.022003      0.193281
H      7.64558     10.62451     15.10445         0.651506     -0.223488     -0.137130
H     13.33282     10.62451      5.87395        -0.764499     -0.146579      0.203605
H     13.33282     10.35389     15.10445        -0.437057     -0.105931     -0.061773
H      5.87395      7.64558     10.35389         0.209304      1.098209     -0.270392
H     15.10445      7.64558     10.62451        -0.174861      0.468326     -0.120471
H      5.87395     13.33282     10.62451         0.160744     -0.425361     -0.065240
H     15.10445     13.33282     10.35389        -0.129154     -0.908773      0.015836
H      5.87395     10.35389      7.64558         0.135529      0.094977      0.460085
H     15.10445     10.62451      7.64558         0.098918     -0.018194      1.079703
H      5.87395     10.62451     13.33282         0.194944     -0.033959     -0.389060
H     15.10445     10.35389     13.33282        -0.121849     -0.050313     -0.546781
H     10.35389      7.64558      5.87395         0.124935      0.890135      0.189174
H     10.62451      7.64558     15.10445        -0.009199      0.526809     -0.164099
H     10.62451     13.33282      5.87395        -0.021137     -0.593588      0.225555
H     10.35389     13.33282     15.10445        -0.300303     -0.893038     -0.124470
H      7.64558      5.87395     10.35389         0.441071      0.095939     -0.055069
H      7.64558     15.10445     10.62451         0.855101     -0.278166      0.037138
H     13.33282      5.87395     10.62451        -0.455774      0.185216     -0.065646
H     13.33282     15.10445     10.35389        -0.659730     -0.098536      0.161916
H     12.45634     12.45634     19.01126         0.252813      0.263965     -0.230015
H     19.01126     19.01126     19.01126        -0.251559     -0.232153     -0.261755
H     19.01126     12.45634     12.45634        -0.236453      0.272403      0.239231
H     12.45634     19.01126     12.45634         0.224753     -0.264919      0.249476
C     10.35284      5.61067      6.59456        -0.193094     -0.362117     -0.027076
C     10.62556     15.36773      6.59456         0.067772      0.375160     -1.213053
C     10.62556      5.61067     14.38384        -0.055684     -0.245728      0.799239
C     10.35284     15.36773     14.38384         0.047456      0.891511      0.409810
C      6.59456     10.35284      5.61067        -0.368550     -0.036568     -0.171450
C      6.59456     10.62556     15.36773        -0.839463      0.202172      0.368942
C     14.38384     10.62556      5.61067         0.449926      0.298892     -0.506152
C     14.38384     10.35284     15.36773         0.781976     -0.115706      0.444969
C      5.61067      6.59456     10.35284        -0.312890     -0.651892      0.425224
C     15.36773      6.59456     10.62556         0.170411     -0.517143      0.078963
C      5.61067     14.38384     10.62556        -0.144934      0.390454     -0.023099
C     15.36773     14.38384     10.35284         0.399330     -0.043726     -0.104929
C      5.61067     10.35284      6.59456        -0.257757     -0.019105     -0.781378
C     15.36773     10.62556      6.59456         0.604824     -0.272276     -1.345784
C      5.61067     10.62556     14.38384        -0.345035      0.000141      0.433040
C     15.36773     10.35284     14.38384         0.493811     -0.166734      1.130606
C     10.35284      6.59456      5.61067        -0.164344     -0.503312     -0.432983
C     10.62556      6.59456     15.36773         0.055524     -0.633907      0.268235
C     10.62556     14.38384      5.61067         0.107640      1.006928     -0.492184
C     10.35284     14.38384     15.36773         0.247715      0.595363      0.547011
C      6.59456      5.61067     10.35284        -0.095278     -0.810452      0.075027
C      6.59456     15.36773     10.62556        -1.522119      0.409882      0.105995
C     14.38384      5.61067     10.62556         0.647326     -0.273382     -0.016521
C     14.38384     15.36773     10.35284        -0.432527      0.678931     -0.310109
C     10.40319      3.19606      7.29314         0.007851      0.840122     -0.294290
C     10.35913      4.25547      6.23373        -0.054699     -0.460544      0.511673
C      0.08601      7.29314      7.29314        -0.007066     -0.262992     -0.503105
C      0.13007      6.23373      6.23373         0.030623      0.142078      0.208891
C      0.08601      3.19606      3.19606        -0.011584      0.657058      0.195907
C      0.13007      4.25547      4.25547        -0.092662     -0.181225     -0.200726
C     10.40319      7.29314      3.19606        -0.007332     -0.655490      0.559644
C     10.35913      6.23373      4.25547        -0.044001      0.276976     -0.613724
C      7.29314     10.40319      3.19606        -0.330144      0.026807      0.934130
C      6.23373     10.35913      4.25547         0.174496      0.029659     -0.125953
C      7.29314      0.08601      7.29314        -0.308871     -0.039088     -0.299141
C      6.23373      0.13007      6.23373         0.332941     -0.052073      0.327332
C      3.19606      0.08601      3.19606         0.533051     -0.034709      0.712455
C      4.25547      0.13007      4.25547        -0.091448     -0.033317     -0.377039
C      3.19606     10.40319      7.29314         0.728712      0.000960     -0.402849
C      4.25547     10.35913      6.23373        -0.155947      0.030425      0.085288
C      3.19606      7.29314     10.40319         0.670034     -1.283854     -0.010045
C      4.25547      6.23373     10.35913        -0.648971      0.917678      0.084116
C      7.29314      7.29314      0.08601        -0.671894     -0.183146     -0.019779
C      6.23373      6.23373      0.13007         0.213704      0.205124      0.015097
C      3.19606      3.19606      0.08601         0.266273      0.291936     -0.021474
C      4.25547      4.25547      0.13007        -0.072970     -0.037553     -0.002220
C      7.29314      3.19606     10.40319        -0.363230      1.006255      0.016015
C      6.23373      4.25547     10.35913         1.061068     -0.030843      0.014942
O     10.43466      3.58206      8.50569        -0.043940      0.047313      0.383806
O     10.54374     17.39634      8.50569        -0.038945     -0.171021      0.582556
O     10.54374      3.58206     12.47271         0.050734      0.058731     -0.309252
O     10.43466     17.39634     12.47271        -0.010099     -0.139227     -0.629039
O      8.50569     10.43466      3.58206         0.355092     -0.028184     -0.029644
O      8.50569     10.54374     17.39634         0.471002      0.045007     -0.145031
O     12.47271     10.54374      3.58206        -0.482941      0.012679      0.080087
O     12.47271     10.43466     17.39634        -0.813531      0.002915     -0.196995
O      3.58206      8.50569     10.43466         0.110055      1.041655      0.017039
O     17.39634      8.50569     10.54374        -0.033847      0.313683      0.073950
O      3.58206     12.47271     10.54374         0.072342     -0.460671      0.051142
O     17.39634     12.47271     10.43466        -0.177718     -0.897162      0.056661
O      3.58206     10.43466      8.50569        -0.066462     -0.069849      0.318148
O     17.39634     10.54374      8.50569        -0.131683      0.042115      0.462006
O      3.58206     10.54374     12.47271         0.088373     -0.025303     -0.641727
O     17.39634     10.43466     12.47271        -0.183391      0.054510     -0.782426
O     10.43466      8.50569      3.58206         0.028596      0.649328      0.155688
O     10.54374      8.50569     17.39634         0.061704      0.445419     -0.084274
O     10.54374     12.47271      3.58206        -0.013100     -0.741014      0.231618
O     10.43466     12.47271     17.39634         0.034336     -0.848866     -0.239999
O      8.50569      3.58206     10.43466         0.442676      0.021198     -0.039988
O      8.50569     17.39634     10.54374         0.686307     -0.264500     -0.061400
O     12.47271      3.58206     10.54374        -0.461966      0.152499      0.042213
O     12.47271     17.39634     10.43466        -0.551607     -0.022994     -0.007578
O     11.90042     11.90042     19.56718        -0.294170     -0.313993      0.255865
O     19.56718     19.56718     19.56718         0.283246      0.263919      0.311279
O     19.56718     11.90042     11.90042         0.261124     -0.322135     -0.242673
O     11.90042     19.56718     11.90042        -0.271621      0.278639     -0.265386
O      9.45224      1.03696      9.45224        -0.082617      0.042100     -0.069605
O      1.03696      9.45224      9.45224         0.015532     -0.168555     -0.097447
O      1.03696      1.03696      1.03696         0.002361      0.069441      0.180974
O      9.45224      9.45224      1.03696        -0.062315     -0.099288      0.108770
Zr     10.48920      2.52580     10.48920         0.000836     -0.095453     -0.054569
Zr     10.48920     18.45260     10.48920         0.127281      0.349502     -0.006356
Zr     10.48920     10.48920      2.52580         0.012351     -0.038969     -0.396109
Zr     10.48920     10.48920     18.45260        -0.159210     -0.061830      0.373032
Zr      2.52580     10.48920     10.48920        -0.330262      0.242251     -0.131836
Zr     18.45260     10.48920     10.48920         0.277112     -0.016084     -0.284357
Pd      8.99701     10.13667     13.31217        -0.045781     -0.022074      0.030797
Pd     10.69594      9.71196     10.85998        -0.012161     -0.039791     -0.090860
Pd     13.73336      8.41059     12.57504        -0.004120      0.024138      0.010229
Pd     11.01362     10.91746     14.97068        -0.027769     -0.019380      0.012911
Pd     12.90500     11.03335     12.96260         0.026392      0.020672      0.063032
Pd     15.09880     11.10153     11.31410        -0.006114     -0.021381      0.004762
Pd      6.60719      7.70208     12.31698        -0.009083      0.020750      0.011636
Pd      9.31888      7.30391      9.86941        -0.006575     -0.007317     -0.020750
Pd      9.23330      7.48107     12.63027         0.010022     -0.006455     -0.013570
Pd     11.64303      7.16910     11.41642         0.000970      0.010452     -0.011466
Pd     11.69604      8.00629      8.90081         0.013911     -0.032081     -0.035014
Pd      7.37453     11.78285     11.78673        -0.020960     -0.002477     -0.005511
Pd      9.19244     14.74778      9.43821        -0.002736     -0.022511      0.004961
Pd      8.40087     12.55816     14.26332        -0.014739     -0.010216     -0.005291
Pd     14.09243     14.25509      8.31320         0.002666     -0.003416     -0.000595
Pd     11.49943     13.64939      8.72551         0.017474     -0.018828      0.022864
Pd     14.16341     11.69621      8.88684        -0.016184     -0.005537      0.002620
Pd      8.71839     14.03962     12.07404        -0.003961     -0.004407      0.006370
Pd     12.27346     13.51099     14.14618        -0.004470      0.024501     -0.008460
Pd     11.34313     14.42464     11.44175         0.003779     -0.008771     -0.003853
Pd     14.07557     13.60495     12.26898         0.001402     -0.013004     -0.005459
Pd     12.42544     12.16720     10.72239        -0.018289     -0.060149      0.012443
Pd     12.75372     12.53155      6.67573        -0.006302      0.004991      0.003679
Pd     13.93305      9.00365      7.98787        -0.001430     -0.005889     -0.014359
Pd      6.94231      8.50371      8.76564         0.002410     -0.008474     -0.010650
Pd      5.62487     10.10454     10.72572        -0.002176     -0.007416     -0.040707
Pd      9.39762      9.47962      8.11789        -0.014328     -0.023255     -0.072687
Pd      8.57444      7.04252      7.23885        -0.014533     -0.020819     -0.007374
Pd      9.76112     12.13211     10.36298        -0.005253     -0.022699      0.026368
Pd     11.63815     10.82027      8.48376        -0.004051     -0.000035     -0.030785
Pd     11.58301      9.09525      6.46236         0.010204     -0.001421     -0.009651
Pd     10.09300     11.34498      6.29588        -0.009298      0.002378     -0.023105
Ir     11.30053      9.00360     13.22771        -0.024726      0.050656     -0.060108
Ir     13.22243      9.62311     10.37997        -0.008910     -0.037336     -0.039220
Ir     10.55405     12.23476     12.74173        -0.016944     -0.029077      0.012220
Ir      7.59447     11.01016      9.26060         0.038981      0.001281     -0.033268
Ir      8.86471     12.59609      8.07302         0.068024     -0.054628      0.005372
Ir      8.19833      9.31539     11.00962        -0.012016     -0.003730     -0.016920
