152
# total energy = -1110.13116496 eVH     10.35389      5.87395      7.64558        -0.370997     -0.366487      1.148729
H     10.62451     15.10445      7.64558         0.432358      0.084517      0.967177
H     10.62451      5.87395     13.33282        -0.199141     -1.041285     -1.611772
H     10.35389     15.10445     13.33282        -0.617811      0.365213     -0.455485
H      7.64558     10.35389      5.87395         0.491580     -0.576093     -0.024643
H      7.64558     10.62451     15.10445         0.327725     -0.268349      0.047303
H     13.33282     10.62451      5.87395        -0.418644      0.427693      0.008148
H     13.33282     10.35389     15.10445        -0.479620      0.325953      0.109170
H      5.87395      7.64558     10.35389         0.086812      0.399961      0.033687
H     15.10445      7.64558     10.62451         0.381315      0.418264      0.197102
H      5.87395     13.33282     10.62451        -0.268084     -0.414443      0.396968
H     15.10445     13.33282     10.35389         0.040981     -0.375711     -0.415467
H      5.87395     10.35389      7.64558        -0.078807     -0.268288      1.527229
H     15.10445     10.62451      7.64558         0.156505      0.162468      1.034708
H      5.87395     10.62451     13.33282        -0.092057     -0.311015     -1.089873
H     15.10445     10.35389     13.33282         0.282850      0.545000     -1.228285
H     10.35389      7.64558      5.87395        -0.481011      0.539020     -0.288346
H     10.62451      7.64558     15.10445        -0.067822      0.709079      0.280227
H     10.62451     13.33282      5.87395         0.904397     -1.395214     -0.334913
H     10.35389     13.33282     15.10445         0.311269     -0.522662     -0.014641
H      7.64558      5.87395     10.35389         0.874013      0.131852     -0.132792
H      7.64558     15.10445     10.62451         2.033758      0.828578      0.241669
H     13.33282      5.87395     10.62451        -2.477399     -0.979763     -0.193472
H     13.33282     15.10445     10.35389        -0.841098     -0.032203     -0.247209
H     12.45634     12.45634     19.01126         0.270621      0.256391     -0.231060
H     19.01126     19.01126     19.01126        -0.267545     -0.251927     -0.238824
H     19.01126     12.45634     12.45634        -0.279323      0.284441      0.189127
H     12.45634     19.01126     12.45634         0.258061     -0.252265      0.236674
C     10.35284      5.61067      6.59456         0.168362     -0.414323     -1.544054
C     10.62556     15.36773      6.59456         0.131191      0.683923     -0.869011
C     10.62556      5.61067     14.38384         0.076547     -0.300065      2.036980
C     10.35284     15.36773     14.38384         0.161521      0.272238      1.807751
C      6.59456     10.35284      5.61067        -1.164238     -0.161144     -0.929398
C      6.59456     10.62556     15.36773        -0.613680     -0.133066      0.667918
C     14.38384     10.62556      5.61067         0.729027     -0.136232     -0.804231
C     14.38384     10.35284     15.36773         1.121066      0.139745      0.920905
C      5.61067      6.59456     10.35284        -0.829047     -0.699845     -0.141413
C     15.36773      6.59456     10.62556         1.951514      0.026170     -0.090125
C      5.61067     14.38384     10.62556        -1.576725      0.129233     -0.022735
C     15.36773     14.38384     10.35284         0.452121      0.126132      0.038509
C      5.61067     10.35284      6.59456        -0.333487      0.251070     -1.601786
C     15.36773     10.62556      6.59456         0.292060     -0.027334     -0.933901
C      5.61067     10.62556     14.38384        -0.354059      0.273175      1.454240
C     15.36773     10.35284     14.38384         0.140099     -0.330015      1.645043
C     10.35284      6.59456      5.61067        -0.251921     -1.200678     -0.918090
C     10.62556      6.59456     15.36773        -0.052760     -1.021541      1.155958
C     10.62556     14.38384      5.61067        -0.432506      2.064609     -0.758972
C     10.35284     14.38384     15.36773        -0.281028      1.583091      0.385247
C      6.59456      5.61067     10.35284        -1.013822     -0.361967      0.067127
C      6.59456     15.36773     10.62556        -1.494342      0.315058     -0.340580
C     14.38384      5.61067     10.62556         1.307525     -0.583451     -0.010348
C     14.38384     15.36773     10.35284         0.343973      0.264841      0.043516
C     10.40319      3.19606      7.29314         0.020457      0.295098     -0.115725
C     10.35913      4.25547      6.23373         0.122070     -0.433713      0.160602
C      0.08601      7.29314      7.29314        -0.053537     -0.337029     -0.434816
C      0.13007      6.23373      6.23373        -0.157469      0.833296      0.035999
C      0.08601      3.19606      3.19606        -0.116009      1.506358      0.167291
C      0.13007      4.25547      4.25547        -0.122985     -0.389730     -1.364290
C     10.40319      7.29314      3.19606         0.034524     -0.461354      0.104636
C     10.35913      6.23373      4.25547         0.239283      0.138651     -0.403051
C      7.29314     10.40319      3.19606        -1.677614      0.023544      0.261748
C      6.23373     10.35913      4.25547         0.545483      0.052282     -0.536806
C      7.29314      0.08601      7.29314        -0.378377      0.004585     -0.271801
C      6.23373      0.13007      6.23373         0.428726     -0.010201      0.339378
C      3.19606      0.08601      3.19606         0.655319      0.001998      0.276958
C      4.25547      0.13007      4.25547        -0.400903     -0.010512     -0.427087
C      3.19606     10.40319      7.29314         0.388772      0.043295     -0.375367
C      4.25547     10.35913      6.23373        -0.666567      0.074588      0.409636
C      3.19606      7.29314     10.40319         0.349351     -0.294325     -0.005400
C      4.25547      6.23373     10.35913         0.029395      0.656766      0.104406
C      7.29314      7.29314      0.08601        -0.689078     -0.473894     -0.020462
C      6.23373      6.23373      0.13007         0.392914      1.247588     -0.037479
C      3.19606      3.19606      0.08601         0.791080      0.434037      0.003615
C      4.25547      4.25547      0.13007        -0.375972     -1.529854     -0.091285
C      7.29314      3.19606     10.40319        -0.348658      0.284633      0.002876
C      6.23373      4.25547     10.35913         0.586058     -0.126986      0.242988
O     10.43466      3.58206      8.50569        -0.044513      0.191576      0.280167
O     10.54374     17.39634      8.50569         0.043424     -0.221386      0.480327
O     10.54374      3.58206     12.47271         0.093309     -0.013318     -0.083945
O     10.43466     17.39634     12.47271        -0.034667     -0.107706     -0.243082
O      8.50569     10.43466      3.58206         0.912486      0.181116      0.393984
O      8.50569     10.54374     17.39634         0.553649      0.076261     -0.214995
O     12.47271     10.54374      3.58206        -0.509725     -0.025058      0.192701
O     12.47271     10.43466     17.39634        -0.529433     -0.069853     -0.192598
O      3.58206      8.50569     10.43466         0.167744      0.490170     -0.040649
O     17.39634      8.50569     10.54374        -0.195535      0.667944      0.043204
O      3.58206     12.47271     10.54374         0.151001     -0.620865      0.025530
O     17.39634     12.47271     10.43466        -0.176428     -0.497090     -0.017874
O      3.58206     10.43466      8.50569         0.215739     -0.074889      0.429956
O     17.39634     10.54374      8.50569        -0.162175      0.032023      0.421392
O      3.58206     10.54374     12.47271         0.138488      0.007516     -0.360163
O     17.39634     10.43466     12.47271         0.067991     -0.066030     -0.085808
O     10.43466      8.50569      3.58206         0.005512      0.349031      0.186101
O     10.54374      8.50569     17.39634         0.072181      0.451003     -0.196893
O     10.54374     12.47271      3.58206        -0.219881     -0.897638      0.351006
O     10.43466     12.47271     17.39634        -0.080666     -0.431337     -0.236998
O      8.50569      3.58206     10.43466         0.510984      0.196321     -0.017454
O      8.50569     17.39634     10.54374         0.623192     -0.192815      0.033085
O     12.47271      3.58206     10.54374        -0.714733      0.280864      0.040835
O     12.47271     17.39634     10.43466        -0.470852     -0.187866     -0.039784
O     11.90042     11.90042     19.56718        -0.335589     -0.303900      0.263161
O     19.56718     19.56718     19.56718         0.331423      0.305095      0.284810
O     19.56718     11.90042     11.90042         0.282462     -0.290933     -0.138331
O     11.90042     19.56718     11.90042        -0.316257      0.295007     -0.235176
O      9.45224      1.03696      9.45224        -0.047999      0.072333     -0.042110
O      1.03696      9.45224      9.45224         0.038281     -0.070136     -0.067978
O      1.03696      1.03696      1.03696         0.039945      0.115501      0.127230
O      9.45224      9.45224      1.03696        -0.103984     -0.068241      0.137154
Zr     10.48920      2.52580     10.48920         0.092557     -0.154899     -0.159012
Zr     10.48920     18.45260     10.48920        -0.056573      0.169489     -0.035280
Zr     10.48920     10.48920      2.52580         0.363963     -0.273599     -0.230727
Zr     10.48920     10.48920     18.45260        -0.019236     -0.065814      0.194945
Zr      2.52580     10.48920     10.48920        -0.053760      0.126796     -0.044845
Zr     18.45260     10.48920     10.48920         0.105069     -0.106211     -0.276440
Ir     12.03048     12.43261     10.44236         0.016968      0.025139     -0.001933
Ir     10.89834      7.37011     10.41128         0.060999      0.021627     -0.041207
Ir      8.54949      7.46836     11.65530         0.065849     -0.007270     -0.014506
Ir      7.41585     11.75903      7.66288         0.011431     -0.022406     -0.017741
Ir     11.51778     12.08334      7.13771         0.034845      0.010063      0.000505
Ir     13.49418      8.87889      7.56195         0.064535      0.013734      0.007356
Ir     12.51181     13.89970      8.42583         0.001555      0.015929     -0.001011
Ir      9.58900     11.31467      5.61435         0.045597     -0.020049     -0.023503
Ir      9.06677     13.53106      7.07829         0.009133     -0.022398     -0.005217
Ir      9.15496      9.68526      7.59048         0.035118     -0.015953     -0.021798
Ir     13.04692      7.04685     11.93095         0.049632     -0.002406      0.016244
Ir     13.26186      6.93989      9.11617         0.063799      0.017179      0.000538
Ir     10.79088      7.59890     12.92883         0.057394      0.007281     -0.007204
Ir     13.55339     11.45491      8.71722         0.012266      0.030727      0.028442
Ir     11.35204      9.67742      6.25249         0.051358      0.000200     -0.015574
Ir      6.94026      9.34239      9.01762         0.065376     -0.020807     -0.017617
Ir     14.06858     11.33378     11.54396        -0.027812     -0.004257      0.067385
Ir     11.49081      9.89549      8.93148         0.073984      0.002527      0.008852
Ir      9.24056      9.57920     10.27699         0.051549     -0.015912      0.005335
Ir     13.67100      9.27218     10.16025         0.059681      0.044612      0.014902
Ir     13.65572      9.16817     12.87787         0.055344     -0.027702      0.039060
Ir     11.50275      9.70232     11.58255         0.086275      0.019100      0.007830
Ir      9.81793     11.82172      9.00510         0.043167      0.017008     -0.007420
Ir      8.74234      7.48536      8.91754         0.068045     -0.005595     -0.007300
Ir     11.16308      7.63290      7.89599         0.073647     -0.020948     -0.017849
Ir      9.08949      9.56985     13.03395         0.049754     -0.014380     -0.004309
Ir      7.55862     14.02851      8.99800        -0.004647     -0.022069     -0.012415
Ir     10.96803     14.07308     11.98533        -0.012030      0.053173     -0.022160
Ir     10.15264     14.22513      9.55532        -0.011092     -0.030330     -0.026946
Ir      9.75404     11.72816     11.72093         0.018404      0.012647     -0.002943
Ir      7.51331     11.72475     10.24294         0.033591     -0.025386     -0.019274
Ir      8.42715     13.85750     11.63273        -0.003304     -0.022666     -0.028473
Ir      7.49939     11.77397     12.89344         0.016034     -0.039548     -0.035690
Ir      9.77268     11.68099     14.32508        -0.011317     -0.003400      0.009050
Ir     13.53968     13.78080     12.15054         0.000419      0.032669      0.025676
Ir     12.03064     11.95537     13.04719        -0.023749      0.050673      0.030189
Ir     11.47339      9.78574     14.23098         0.033681      0.025338     -0.011449
Ir      6.96171      9.58453     11.56439         0.060586     -0.036076     -0.019521
