152
# total energy = -1023.26841692 eVH     10.35389      5.87395      7.64558         0.486143      0.081884      0.709641
H     10.62451     15.10445      7.64558        -0.104922     -0.063156      0.798862
H     10.62451      5.87395     13.33282         0.146951      0.129134     -0.634502
H     10.35389     15.10445     13.33282        -0.184016     -0.115789     -0.547917
H      7.64558     10.35389      5.87395         0.312073     -0.021803      0.193979
H      7.64558     10.62451     15.10445         0.661627     -0.226085     -0.131938
H     13.33282     10.62451      5.87395        -0.760158     -0.137488      0.203160
H     13.33282     10.35389     15.10445        -0.452040     -0.111900     -0.053488
H      5.87395      7.64558     10.35389         0.210386      1.088940     -0.260840
H     15.10445      7.64558     10.62451        -0.173556      0.463373     -0.115422
H      5.87395     13.33282     10.62451         0.161364     -0.429191     -0.066239
H     15.10445     13.33282     10.35389        -0.128166     -0.911308      0.016994
H      5.87395     10.35389      7.64558         0.135306      0.095230      0.461219
H     15.10445     10.62451      7.64558         0.096657     -0.004819      1.088207
H      5.87395     10.62451     13.33282         0.192205     -0.035012     -0.391195
H     15.10445     10.35389     13.33282        -0.117504     -0.053869     -0.557893
H     10.35389      7.64558      5.87395         0.120541      0.890223      0.191496
H     10.62451      7.64558     15.10445        -0.006074      0.503690     -0.165171
H     10.62451     13.33282      5.87395        -0.022678     -0.595479      0.228765
H     10.35389     13.33282     15.10445        -0.310631     -0.888103     -0.120592
H      7.64558      5.87395     10.35389         0.439947      0.096733     -0.050914
H      7.64558     15.10445     10.62451         0.858238     -0.277799      0.038539
H     13.33282      5.87395     10.62451        -0.455603      0.184384     -0.065127
H     13.33282     15.10445     10.35389        -0.658077     -0.096756      0.162618
H     12.45634     12.45634     19.01126         0.252364      0.264638     -0.229427
H     19.01126     19.01126     19.01126        -0.251627     -0.232727     -0.261039
H     19.01126     12.45634     12.45634        -0.237469      0.272733      0.238480
H     12.45634     19.01126     12.45634         0.224373     -0.264854      0.249900
C     10.35284      5.61067      6.59456        -0.195133     -0.368124     -0.021933
C     10.62556     15.36773      6.59456         0.063798      0.379461     -1.188455
C     10.62556      5.61067     14.38384        -0.055579     -0.235610      0.798297
C     10.35284     15.36773     14.38384         0.051948      0.885651      0.399025
C      6.59456     10.35284      5.61067        -0.372258     -0.036643     -0.174614
C      6.59456     10.62556     15.36773        -0.852911      0.209612      0.373582
C     14.38384     10.62556      5.61067         0.442877      0.294454     -0.508735
C     14.38384     10.35284     15.36773         0.789329     -0.118422      0.445788
C      5.61067      6.59456     10.35284        -0.311013     -0.647352      0.424287
C     15.36773      6.59456     10.62556         0.171218     -0.519692      0.074731
C      5.61067     14.38384     10.62556        -0.145550      0.395339     -0.022530
C     15.36773     14.38384     10.35284         0.396704     -0.049351     -0.108904
C      5.61067     10.35284      6.59456        -0.257913     -0.017831     -0.782017
C     15.36773     10.62556      6.59456         0.603988     -0.278809     -1.342161
C      5.61067     10.62556     14.38384        -0.350581      0.000844      0.428122
C     15.36773     10.35284     14.38384         0.500660     -0.168207      1.143266
C     10.35284      6.59456      5.61067        -0.168018     -0.501482     -0.440783
C     10.62556      6.59456     15.36773         0.052715     -0.603801      0.263157
C     10.62556     14.38384      5.61067         0.112219      1.016673     -0.487037
C     10.35284     14.38384     15.36773         0.243139      0.582180      0.554055
C      6.59456      5.61067     10.35284        -0.098788     -0.807608      0.074023
C      6.59456     15.36773     10.62556        -1.515324      0.405754      0.104234
C     14.38384      5.61067     10.62556         0.650298     -0.270683     -0.014287
C     14.38384     15.36773     10.35284        -0.434676      0.681926     -0.310891
C     10.40319      3.19606      7.29314         0.008120      0.848980     -0.298488
C     10.35913      4.25547      6.23373        -0.051847     -0.461163      0.519380
C      0.08601      7.29314      7.29314        -0.007333     -0.270019     -0.495725
C      0.13007      6.23373      6.23373         0.027673      0.133231      0.202531
C      0.08601      3.19606      3.19606        -0.012011      0.679568      0.196441
C      0.13007      4.25547      4.25547        -0.091835     -0.183427     -0.203694
C     10.40319      7.29314      3.19606        -0.006932     -0.666292      0.556833
C     10.35913      6.23373      4.25547        -0.039978      0.286761     -0.612779
C      7.29314     10.40319      3.19606        -0.338365      0.027699      0.927717
C      6.23373     10.35913      4.25547         0.179158      0.031533     -0.124430
C      7.29314      0.08601      7.29314        -0.314252     -0.039666     -0.297616
C      6.23373      0.13007      6.23373         0.337834     -0.053434      0.333401
C      3.19606      0.08601      3.19606         0.541867     -0.035274      0.702104
C      4.25547      0.13007      4.25547        -0.091562     -0.034923     -0.380142
C      3.19606     10.40319      7.29314         0.728259      0.001099     -0.406580
C      4.25547     10.35913      6.23373        -0.160680      0.033672      0.091016
C      3.19606      7.29314     10.40319         0.660783     -1.288762     -0.010340
C      4.25547      6.23373     10.35913        -0.642212      0.915170      0.084379
C      7.29314      7.29314      0.08601        -0.660690     -0.185743     -0.019482
C      6.23373      6.23373      0.13007         0.210438      0.203310      0.013581
C      3.19606      3.19606      0.08601         0.265844      0.291290     -0.021267
C      4.25547      4.25547      0.13007        -0.072860     -0.037842     -0.001194
C      7.29314      3.19606     10.40319        -0.363839      0.993880      0.015757
C      6.23373      4.25547     10.35913         1.062013     -0.026478      0.014470
O     10.43466      3.58206      8.50569        -0.043811      0.044714      0.384366
O     10.54374     17.39634      8.50569        -0.037732     -0.166996      0.577983
O     10.54374      3.58206     12.47271         0.050905      0.052007     -0.302218
O     10.43466     17.39634     12.47271        -0.011611     -0.135360     -0.625041
O      8.50569     10.43466      3.58206         0.360654     -0.026172     -0.026120
O      8.50569     10.54374     17.39634         0.474831      0.045215     -0.146868
O     12.47271     10.54374      3.58206        -0.492340      0.012283      0.084120
O     12.47271     10.43466     17.39634        -0.813027      0.002334     -0.197582
O      3.58206      8.50569     10.43466         0.115753      1.049850      0.017348
O     17.39634      8.50569     10.54374        -0.035191      0.317965      0.074019
O      3.58206     12.47271     10.54374         0.072247     -0.461245      0.050755
O     17.39634     12.47271     10.43466        -0.175626     -0.889247      0.054299
O      3.58206     10.43466      8.50569        -0.065818     -0.070449      0.319980
O     17.39634     10.54374      8.50569        -0.130061      0.042248      0.460067
O      3.58206     10.54374     12.47271         0.085792     -0.024143     -0.633212
O     17.39634     10.43466     12.47271        -0.182169      0.052839     -0.774590
O     10.43466      8.50569      3.58206         0.029727      0.658578      0.157482
O     10.54374      8.50569     17.39634         0.062226      0.455438     -0.086870
O     10.54374     12.47271      3.58206        -0.016723     -0.758379      0.236979
O     10.43466     12.47271     17.39634         0.034749     -0.860078     -0.243267
O      8.50569      3.58206     10.43466         0.447029      0.024419     -0.038587
O      8.50569     17.39634     10.54374         0.679960     -0.262801     -0.059298
O     12.47271      3.58206     10.54374        -0.462452      0.152315      0.042794
O     12.47271     17.39634     10.43466        -0.541540     -0.017393     -0.008502
O     11.90042     11.90042     19.56718        -0.293412     -0.314532      0.255166
O     19.56718     19.56718     19.56718         0.283372      0.265824      0.311102
O     19.56718     11.90042     11.90042         0.262019     -0.322020     -0.239904
O     11.90042     19.56718     11.90042        -0.271306      0.279725     -0.265296
O      9.45224      1.03696      9.45224        -0.082343      0.042129     -0.069093
O      1.03696      9.45224      9.45224         0.016911     -0.167044     -0.098053
O      1.03696      1.03696      1.03696         0.001771      0.070214      0.182701
O      9.45224      9.45224      1.03696        -0.062572     -0.096576      0.110797
Zr     10.48920      2.52580     10.48920        -0.001166     -0.094679     -0.057703
Zr     10.48920     18.45260     10.48920         0.123279      0.341895     -0.006724
Zr     10.48920     10.48920      2.52580         0.015543     -0.048446     -0.406417
Zr     10.48920     10.48920     18.45260        -0.162472     -0.063882      0.380722
Zr      2.52580     10.48920     10.48920        -0.332612      0.244593     -0.122658
Zr     18.45260     10.48920     10.48920         0.275831     -0.013829     -0.285571
Pd      8.98071     10.13046     13.31987        -0.052304     -0.023216      0.003955
Pd     10.69238      9.70129     10.83066        -0.019451     -0.021949     -0.062734
Pd     13.72853      8.42900     12.57745        -0.010859      0.036063     -0.008262
Pd     11.00376     10.91200     14.97664        -0.023891     -0.016518      0.020107
Pd     12.91356     11.05083     12.98636         0.018762      0.028559      0.032102
Pd     15.09208     11.09163     11.31443        -0.024460     -0.032765      0.000830
Pd      6.60910      7.70843     12.32186         0.000575      0.025666      0.013056
Pd      9.31745      7.30643      9.86161        -0.003423     -0.008752     -0.015105
Pd      9.23834      7.48097     12.62401         0.003422      0.002071     -0.021243
Pd     11.64707      7.17740     11.40964         0.002223      0.014599     -0.012357
Pd     11.69932      7.99637      8.88355        -0.002073     -0.030251     -0.037042
Pd      7.36612     11.78245     11.78616        -0.008194      0.002323     -0.006543
Pd      9.19238     14.73321      9.44021        -0.003682     -0.030319      0.001361
Pd      8.39179     12.55628     14.26706        -0.016230     -0.011904     -0.012790
Pd     14.09441     14.25437      8.31339         0.004724     -0.003093     -0.000320
Pd     11.50564     13.64274      8.73427         0.013734     -0.009710      0.019712
Pd     14.15764     11.69532      8.88808        -0.001038     -0.001370     -0.003792
Pd      8.71749     14.03716     12.07962         0.000818     -0.021639      0.012025
Pd     12.26869     13.52663     14.14504        -0.008951      0.023987     -0.007627
Pd     11.34563     14.41175     11.44436         0.001487     -0.025640      0.000384
Pd     14.07275     13.60268     12.26456        -0.004135     -0.016660     -0.007880
Pd     12.42028     12.14583     10.72933        -0.016738     -0.052886      0.034148
Pd     12.75364     12.53860      6.67404        -0.003294      0.008523     -0.011471
Pd     13.93509      9.00168      7.97553         0.011376     -0.011932     -0.040571
Pd      6.94386      8.50246      8.76282        -0.009112     -0.027647     -0.024491
Pd      5.62426     10.10221     10.71307        -0.020321     -0.008115     -0.038371
Pd      9.39628      9.47640      8.09818         0.000962     -0.022260     -0.066098
Pd      8.56915      7.03677      7.23341        -0.014982     -0.024040     -0.013665
Pd      9.75799     12.12368     10.37684         0.002737     -0.027244      0.058941
Pd     11.63539     10.82055      8.46893        -0.013599     -0.006730     -0.025143
Pd     11.58743      9.09294      6.44960         0.010632     -0.002890     -0.025098
Pd     10.09792     11.34189      6.27043         0.013123     -0.016645     -0.056559
Ir     11.29240      9.02417     13.20723        -0.018164      0.037470     -0.061184
Ir     13.22125      9.61284     10.36481         0.003359     -0.036911     -0.014867
Ir     10.55062     12.22849     12.75328        -0.026318     -0.011179     -0.009728
Ir      7.59987     11.00738      9.25882         0.042964      0.042441     -0.054156
Ir      8.89573     12.57742      8.07219         0.048492     -0.058077      0.017509
Ir      8.19617      9.31655     11.00788         0.018815     -0.018945      0.019609
