152
# total energy = -1110.36013054 eVH     10.35389      5.87395      7.64558        -0.341564     -0.161236      1.028874
H     10.62451     15.10445      7.64558         0.383720      0.090689      0.945174
H     10.62451      5.87395     13.33282        -0.304920     -0.719041     -1.415970
H     10.35389     15.10445     13.33282        -0.639041      0.373082     -0.321858
H      7.64558     10.35389      5.87395         0.544868     -0.542634     -0.081774
H      7.64558     10.62451     15.10445         0.354603     -0.242556      0.039335
H     13.33282     10.62451      5.87395        -0.522461      0.609279     -0.014398
H     13.33282     10.35389     15.10445        -0.532342      0.416709      0.162997
H      5.87395      7.64558     10.35389         0.140701      0.493239      0.034738
H     15.10445      7.64558     10.62451         0.430123      0.844499      0.250870
H      5.87395     13.33282     10.62451        -0.230532     -0.442016      0.364588
H     15.10445     13.33282     10.35389         0.031379     -0.311237     -0.391885
H      5.87395     10.35389      7.64558        -0.071743     -0.349615      1.445710
H     15.10445     10.62451      7.64558         0.199938      0.405027      1.252440
H      5.87395     10.62451     13.33282        -0.143576     -0.336254     -1.122490
H     15.10445     10.35389     13.33282         0.532718      0.878165     -1.514038
H     10.35389      7.64558      5.87395        -0.530608      0.495564     -0.198719
H     10.62451      7.64558     15.10445        -0.135606      0.552264      0.200686
H     10.62451     13.33282      5.87395         0.909297     -1.411189     -0.332373
H     10.35389     13.33282     15.10445         0.289583     -0.545865     -0.070930
H      7.64558      5.87395     10.35389         0.725415      0.173900     -0.139762
H      7.64558     15.10445     10.62451         1.971612      0.822995      0.184897
H     13.33282      5.87395     10.62451        -2.691752     -0.998071     -0.413863
H     13.33282     15.10445     10.35389        -0.869105     -0.040771     -0.254009
H     12.45634     12.45634     19.01126         0.271827      0.257816     -0.227591
H     19.01126     19.01126     19.01126        -0.266771     -0.254640     -0.238100
H     19.01126     12.45634     12.45634        -0.282682      0.281142      0.186992
H     12.45634     19.01126     12.45634         0.256090     -0.251955      0.235821
C     10.35284      5.61067      6.59456         0.100106     -0.499389     -1.258351
C     10.62556     15.36773      6.59456         0.163037      0.770922     -0.855528
C     10.62556      5.61067     14.38384         0.170891     -0.325094      1.822495
C     10.35284     15.36773     14.38384         0.121793      0.399708      1.810170
C      6.59456     10.35284      5.61067        -1.119069     -0.112020     -0.846538
C      6.59456     10.62556     15.36773        -0.674928     -0.107791      0.729523
C     14.38384     10.62556      5.61067         0.887473     -0.115887     -0.999090
C     14.38384     10.35284     15.36773         1.207220      0.164260      1.103906
C      5.61067      6.59456     10.35284        -0.690909     -0.798641     -0.161785
C     15.36773      6.59456     10.62556         1.942918     -0.188585     -0.176706
C      5.61067     14.38384     10.62556        -1.575117     -0.005849     -0.111332
C     15.36773     14.38384     10.35284         0.486611      0.048488      0.032036
C      5.61067     10.35284      6.59456        -0.270920      0.206355     -1.366324
C     15.36773     10.62556      6.59456         0.273790     -0.194902     -0.999488
C      5.61067     10.62556     14.38384        -0.281042      0.377974      1.412905
C     15.36773     10.35284     14.38384         0.073018     -0.428511      1.902041
C     10.35284      6.59456      5.61067        -0.202707     -0.929668     -0.694969
C     10.62556      6.59456     15.36773        -0.096357     -0.816527      1.043520
C     10.62556     14.38384      5.61067        -0.483529      2.053722     -0.784938
C     10.35284     14.38384     15.36773        -0.296926      1.480684      0.465841
C      6.59456      5.61067     10.35284        -0.959399     -0.412069      0.076185
C      6.59456     15.36773     10.62556        -1.348643      0.342178     -0.334978
C     14.38384      5.61067     10.62556         1.301948     -1.129454      0.149205
C     14.38384     15.36773     10.35284         0.401460      0.316740      0.055470
C     10.40319      3.19606      7.29314         0.003461      0.312119     -0.097587
C     10.35913      4.25547      6.23373         0.136959     -0.505273      0.031521
C      0.08601      7.29314      7.29314        -0.054247     -0.309972     -0.431973
C      0.13007      6.23373      6.23373        -0.127255      0.726820      0.045793
C      0.08601      3.19606      3.19606        -0.110566      1.623008      0.173883
C      0.13007      4.25547      4.25547        -0.087288     -0.409992     -1.252386
C     10.40319      7.29314      3.19606         0.017054     -0.422903      0.131676
C     10.35913      6.23373      4.25547         0.260132      0.077858     -0.484095
C      7.29314     10.40319      3.19606        -1.664703      0.005198      0.326949
C      6.23373     10.35913      4.25547         0.652800      0.077985     -0.611363
C      7.29314      0.08601      7.29314        -0.397061     -0.009293     -0.294884
C      6.23373      0.13007      6.23373         0.622184     -0.052779      0.275535
C      3.19606      0.08601      3.19606         0.661905     -0.015381      0.190283
C      4.25547      0.13007      4.25547        -0.375538     -0.060904     -0.485540
C      3.19606     10.40319      7.29314         0.382746      0.018468     -0.320897
C      4.25547     10.35913      6.23373        -0.729071      0.058372      0.376444
C      3.19606      7.29314     10.40319         0.306952     -0.220070     -0.006032
C      4.25547      6.23373     10.35913         0.055407      0.648907      0.094063
C      7.29314      7.29314      0.08601        -0.719413     -0.593359     -0.015561
C      6.23373      6.23373      0.13007         0.798057      1.150925     -0.079330
C      3.19606      3.19606      0.08601         0.805786      0.486139      0.013496
C      4.25547      4.25547      0.13007        -0.329968     -1.703971     -0.117999
C      7.29314      3.19606     10.40319        -0.333544      0.279487     -0.003249
C      6.23373      4.25547     10.35913         0.522419     -0.038702      0.229006
O     10.43466      3.58206      8.50569        -0.047194      0.180435      0.258095
O     10.54374     17.39634      8.50569         0.041255     -0.231168      0.485169
O     10.54374      3.58206     12.47271         0.086188     -0.056674     -0.043955
O     10.43466     17.39634     12.47271        -0.023047     -0.139681     -0.281627
O      8.50569     10.43466      3.58206         0.984492      0.181436      0.390165
O      8.50569     10.54374     17.39634         0.564634      0.083409     -0.226515
O     12.47271     10.54374      3.58206        -0.431062     -0.038011      0.189619
O     12.47271     10.43466     17.39634        -0.526992     -0.071107     -0.200848
O      3.58206      8.50569     10.43466         0.178480      0.441476     -0.031424
O     17.39634      8.50569     10.54374        -0.227563      0.714636      0.041591
O      3.58206     12.47271     10.54374         0.158648     -0.663692      0.023897
O     17.39634     12.47271     10.43466        -0.185337     -0.485179     -0.013517
O      3.58206     10.43466      8.50569         0.220130     -0.059039      0.400035
O     17.39634     10.54374      8.50569        -0.169095      0.036577      0.409333
O      3.58206     10.54374     12.47271         0.142819      0.020874     -0.309107
O     17.39634     10.43466     12.47271         0.066876     -0.050560     -0.089275
O     10.43466      8.50569      3.58206        -0.002270      0.277366      0.177689
O     10.54374      8.50569     17.39634         0.071257      0.440869     -0.183874
O     10.54374     12.47271      3.58206        -0.223016     -0.965117      0.347644
O     10.43466     12.47271     17.39634        -0.085184     -0.448869     -0.244593
O      8.50569      3.58206     10.43466         0.499328      0.195107     -0.013690
O      8.50569     17.39634     10.54374         0.656820     -0.192659      0.023035
O     12.47271      3.58206     10.54374        -0.734381      0.277597      0.036659
O     12.47271     17.39634     10.43466        -0.444706     -0.198731     -0.044583
O     11.90042     11.90042     19.56718        -0.344760     -0.307534      0.258427
O     19.56718     19.56718     19.56718         0.326127      0.310513      0.281125
O     19.56718     11.90042     11.90042         0.278693     -0.278803     -0.141340
O     11.90042     19.56718     11.90042        -0.307364      0.288531     -0.234181
O      9.45224      1.03696      9.45224        -0.056617      0.070472     -0.049021
O      1.03696      9.45224      9.45224         0.035242     -0.072478     -0.073730
O      1.03696      1.03696      1.03696         0.056817      0.137596      0.105488
O      9.45224      9.45224      1.03696        -0.130303     -0.088400      0.105099
Zr     10.48920      2.52580     10.48920         0.141756     -0.162722     -0.160914
Zr     10.48920     18.45260     10.48920        -0.091164      0.178728     -0.039947
Zr     10.48920     10.48920      2.52580         0.326696     -0.310491     -0.197612
Zr     10.48920     10.48920     18.45260         0.001401     -0.082880      0.210661
Zr      2.52580     10.48920     10.48920        -0.063867      0.161446     -0.050262
Zr     18.45260     10.48920     10.48920         0.134827     -0.121120     -0.246898
Ir     12.06068     12.49108     10.46415         0.005536     -0.010978     -0.005478
Ir     11.14448      7.41751     10.33417         0.025144      0.003374     -0.035778
Ir      8.79192      7.40257     11.59448         0.029176     -0.011628     -0.021622
Ir      7.48431     11.66864      7.65066         0.013727      0.002543      0.011022
Ir     11.59670     12.09842      7.12673        -0.019486     -0.032194     -0.028066
Ir     13.73119      8.97117      7.56922         0.007509      0.007397      0.001375
Ir     12.50863     13.95278      8.42195        -0.001351      0.021572      0.007449
Ir      9.71451     11.26871      5.57169         0.019461     -0.001799      0.014227
Ir      9.08772     13.47408      7.07401        -0.013249     -0.004383      0.013671
Ir      9.29274      9.66322      7.54051        -0.010289     -0.004904      0.000955
Ir     13.24629      7.04495     11.94940         0.019087     -0.022790      0.003616
Ir     13.52771      7.02209      9.12394         0.029629      0.018806     -0.014192
Ir     11.00670      7.61151     12.87219         0.012139     -0.003641     -0.003135
Ir     13.61719     11.55602      8.75860         0.003839     -0.004170      0.000809
Ir     11.50593      9.66551      6.24094        -0.012532      0.014167     -0.004966
Ir      7.13780      9.21370      8.95083         0.023126     -0.027995      0.001016
Ir     14.05671     11.41516     11.66798         0.004359      0.005337     -0.005116
Ir     11.64757      9.87914      8.91096         0.017034     -0.029832     -0.022334
Ir      9.42073      9.54129     10.26046        -0.016077     -0.055041     -0.026643
Ir     13.85123      9.38789     10.19491        -0.000157      0.011740     -0.011783
Ir     13.79868      9.14932     12.92390         0.005597      0.016925     -0.009007
Ir     11.67793      9.76629     11.58160         0.018930     -0.003064     -0.007215
Ir      9.91313     11.76765      8.98228        -0.016125      0.012111     -0.016264
Ir      9.01405      7.44464      8.86242         0.039778      0.018341     -0.003483
Ir     11.48053      7.60396      7.80517         0.056327     -0.015307     -0.003209
Ir      9.23861      9.51802     13.02548         0.005613     -0.029558     -0.002625
Ir      7.53387     13.93589      8.98756        -0.000417     -0.019192      0.001686
Ir     10.91648     14.13666     11.94287        -0.022199     -0.002435      0.015880
Ir     10.13125     14.18447      9.52087        -0.009720     -0.013967     -0.003320
Ir      9.80407     11.71795     11.72867        -0.020272      0.007433     -0.001545
Ir      7.59016     11.61610     10.20949        -0.002733     -0.015493     -0.004826
Ir      8.38297     13.78344     11.58485        -0.008527     -0.023063      0.005231
Ir      7.52945     11.62370     12.83113         0.002061     -0.022015      0.002386
Ir      9.76236     11.65000     14.34494         0.005377     -0.005061      0.004453
Ir     13.50874     13.87450     12.19534        -0.006559      0.005272     -0.003295
Ir     11.99607     12.06707     13.08984         0.010036     -0.021803      0.004634
Ir     11.56350      9.82979     14.21727         0.006756     -0.008200     -0.004977
Ir      7.13133      9.42867     11.51048         0.013786     -0.035282     -0.012738
