152
# total energy = -1060.54715768 eVH     10.35389      5.87395      7.64558        -0.219307      0.144439      0.998043
H     10.62451     15.10445      7.64558         0.251857     -0.095979      0.794955
H     10.62451      5.87395     13.33282        -0.294967      0.083612     -0.700602
H     10.35389     15.10445     13.33282         0.140975     -0.288086     -0.719653
H      7.64558     10.35389      5.87395         0.824776     -0.185607      0.216768
H      7.64558     10.62451     15.10445         0.240526      0.038422     -0.059073
H     13.33282     10.62451      5.87395        -0.725349      0.015436      0.158172
H     13.33282     10.35389     15.10445        -0.312832     -0.096223     -0.034839
H      5.87395      7.64558     10.35389         0.102944      0.409990      0.004483
H     15.10445      7.64558     10.62451        -0.098155      0.721031      0.273059
H      5.87395     13.33282     10.62451         0.003278     -0.845756      0.096365
H     15.10445     13.33282     10.35389        -0.215811     -0.398226      0.038852
H      5.87395     10.35389      7.64558         0.279835      0.059493      0.356875
H     15.10445     10.62451      7.64558        -0.148394     -0.131500      0.534907
H      5.87395     10.62451     13.33282        -0.018649      0.376204     -0.701412
H     15.10445     10.35389     13.33282         0.163371     -0.426026     -0.895891
H     10.35389      7.64558      5.87395        -0.004331      0.501438      0.346807
H     10.62451      7.64558     15.10445         0.227333      0.639865     -0.109330
H     10.62451     13.33282      5.87395         0.025913     -0.580301      0.197421
H     10.35389     13.33282     15.10445         0.072250     -0.367780     -0.120005
H      7.64558      5.87395     10.35389         0.433731      0.140773      0.054491
H      7.64558     15.10445     10.62451         0.388043     -0.130206      0.222356
H     13.33282      5.87395     10.62451        -0.307129      0.117109     -0.005405
H     13.33282     15.10445     10.35389        -0.626074     -0.203843      0.207014
H     12.45634     12.45634     19.01126         0.258380      0.266987     -0.224854
H     19.01126     19.01126     19.01126        -0.249220     -0.269579     -0.235730
H     19.01126     12.45634     12.45634        -0.240333      0.267167      0.243867
H     12.45634     19.01126     12.45634         0.296097     -0.222205      0.236921
C     10.35284      5.61067      6.59456         0.394484     -0.315142     -1.172763
C     10.62556     15.36773      6.59456        -0.279448      0.659785     -0.601062
C     10.62556      5.61067     14.38384         0.335207     -0.278270      0.738751
C     10.35284     15.36773     14.38384        -0.192985      0.333587      0.880487
C      6.59456     10.35284      5.61067        -1.109062     -0.011984     -0.200293
C      6.59456     10.62556     15.36773        -0.654147      0.062232      0.359404
C     14.38384     10.62556      5.61067         1.301455     -0.085409     -0.605972
C     14.38384     10.35284     15.36773         0.314388     -0.120968      0.408899
C      5.61067      6.59456     10.35284        -0.287590     -0.598554     -0.006771
C     15.36773      6.59456     10.62556         0.336756     -0.952031     -0.217192
C      5.61067     14.38384     10.62556        -0.210405      0.972528     -0.289861
C     15.36773     14.38384     10.35284         0.437809      0.829473     -0.092027
C      5.61067     10.35284      6.59456        -0.272178     -0.113581     -0.527719
C     15.36773     10.62556      6.59456         0.250355      0.121459     -0.469042
C      5.61067     10.62556     14.38384        -0.303618     -0.148542      1.209566
C     15.36773     10.35284     14.38384         0.173307      0.130592      1.212231
C     10.35284      6.59456      5.61067        -0.030405     -0.630976     -0.413363
C     10.62556      6.59456     15.36773        -0.025020     -0.768832      0.369728
C     10.62556     14.38384      5.61067        -0.456314      0.412244     -0.769843
C     10.35284     14.38384     15.36773        -0.171601      0.664767      0.462303
C      6.59456      5.61067     10.35284        -0.561285     -0.325722      0.049713
C      6.59456     15.36773     10.62556        -0.260425      0.501869      0.084235
C     14.38384      5.61067     10.62556         0.358508     -0.360896      0.078294
C     14.38384     15.36773     10.35284         1.030192      0.343946     -0.097779
C     10.40319      3.19606      7.29314        -0.009084      0.857821     -0.364561
C     10.35913      4.25547      6.23373         0.045045     -0.391818      0.293947
C      0.08601      7.29314      7.29314        -0.010789     -0.541051     -0.501101
C      0.13007      6.23373      6.23373        -0.079655      0.791260      0.057214
C      0.08601      3.19606      3.19606        -0.012572      0.571227      0.273160
C      0.13007      4.25547      4.25547         0.072342     -0.227243     -0.606854
C     10.40319      7.29314      3.19606        -0.041569     -1.099043      0.823247
C     10.35913      6.23373      4.25547        -0.028886      0.360709     -0.222490
C      7.29314     10.40319      3.19606        -0.966066     -0.053096      0.304450
C      6.23373     10.35913      4.25547         0.367936      0.105283     -0.517925
C      7.29314      0.08601      7.29314        -0.794281      0.017507     -0.382607
C      6.23373      0.13007      6.23373         0.168845      0.074460      0.120451
C      3.19606      0.08601      3.19606         0.564772      0.004106      0.191328
C      4.25547      0.13007      4.25547        -0.205213     -0.086994     -0.241718
C      3.19606     10.40319      7.29314         0.492157     -0.036177     -0.983425
C      4.25547     10.35913      6.23373        -0.150829     -0.010404      0.162853
C      3.19606      7.29314     10.40319         0.696805     -0.430123      0.009605
C      4.25547      6.23373     10.35913        -0.111778      0.166607      0.000292
C      7.29314      7.29314      0.08601        -0.388981     -0.304567     -0.024318
C      6.23373      6.23373      0.13007         0.248878      0.128866     -0.156101
C      3.19606      3.19606      0.08601         0.324684      0.557517     -0.021158
C      4.25547      4.25547      0.13007        -0.437035     -0.292201     -0.001605
C      7.29314      3.19606     10.40319        -0.274472      0.626761      0.004684
C      6.23373      4.25547     10.35913         0.023136     -0.178498      0.017692
O     10.43466      3.58206      8.50569        -0.036127      0.050916      0.253532
O     10.54374     17.39634      8.50569         0.063784     -0.062302      0.485872
O     10.54374      3.58206     12.47271         0.034701      0.131898     -0.452659
O     10.43466     17.39634     12.47271         0.072954     -0.036237     -0.497420
O      8.50569     10.43466      3.58206         0.661558     -0.081969      0.059678
O      8.50569     10.54374     17.39634         0.785896      0.080930     -0.121338
O     12.47271     10.54374      3.58206        -0.552668      0.110947      0.188327
O     12.47271     10.43466     17.39634        -0.348109     -0.003373      0.042577
O      3.58206      8.50569     10.43466         0.014139      0.443971     -0.078426
O     17.39634      8.50569     10.54374        -0.102254      0.442917      0.040621
O      3.58206     12.47271     10.54374         0.134004     -0.613043     -0.005611
O     17.39634     12.47271     10.43466        -0.239605     -0.737022     -0.006958
O      3.58206     10.43466      8.50569         0.172675     -0.042147      0.810574
O     17.39634     10.54374      8.50569         0.004457      0.034405      0.320725
O      3.58206     10.54374     12.47271         0.012300      0.006209     -0.312466
O     17.39634     10.43466     12.47271        -0.032614      0.003188     -0.344091
O     10.43466      8.50569      3.58206        -0.094195      0.557264     -0.086440
O     10.54374      8.50569     17.39634         0.049146      0.617949     -0.085617
O     10.54374     12.47271      3.58206         0.094363     -0.536184      0.106820
O     10.43466     12.47271     17.39634        -0.053531     -0.812511     -0.294072
O      8.50569      3.58206     10.43466         0.369125      0.024131     -0.063902
O      8.50569     17.39634     10.54374         0.564767     -0.136097      0.054289
O     12.47271      3.58206     10.54374        -0.496768      0.124274      0.026320
O     12.47271     17.39634     10.43466        -0.620910     -0.093544      0.050537
O     11.90042     11.90042     19.56718        -0.269912     -0.278952      0.222853
O     19.56718     19.56718     19.56718         0.293927      0.312154      0.285055
O     19.56718     11.90042     11.90042         0.267957     -0.310657     -0.259740
O     11.90042     19.56718     11.90042        -0.314026      0.204425     -0.211095
O      9.45224      1.03696      9.45224        -0.122460      0.142638     -0.046471
O      1.03696      9.45224      9.45224         0.148495     -0.144981     -0.056344
O      1.03696      1.03696      1.03696         0.086728      0.098104      0.066819
O      9.45224      9.45224      1.03696        -0.101959     -0.139066      0.124863
Zr     10.48920      2.52580     10.48920         0.039846     -0.177992      0.177726
Zr     10.48920     18.45260     10.48920        -0.183051      0.235149     -0.383771
Zr     10.48920     10.48920      2.52580         0.141289      0.404246     -0.231663
Zr     10.48920     10.48920     18.45260        -0.003419     -0.244255      0.315549
Zr      2.52580     10.48920     10.48920        -0.330630      0.090443      0.275008
Zr     18.45260     10.48920     10.48920         0.203430     -0.148605     -0.022951
Pd      9.30024     14.39650      9.17054        -0.030867      0.085647     -0.050498
Pd      8.53960     13.68311     13.13969        -0.061684     -0.067601      0.147214
Pd     12.00071     14.38509      8.85707         0.026717     -0.002714      0.025601
Pd     12.49868     12.80094     10.86127        -0.001796      0.026271     -0.008641
Pd     12.08262      7.12611     12.50909        -0.019410      0.043640     -0.038274
Pd     11.01572     15.12040     11.32226         0.016828      0.007077     -0.012518
Pd      9.85990     12.77074     11.04130        -0.055438     -0.014344      0.035473
Pd     13.57982     12.31778      8.08964        -0.035880     -0.009315      0.057081
Pd     11.58473     11.69443      6.21269         0.020592     -0.093382      0.107925
Pd      7.82252      8.17629      7.47859         0.011846      0.034723     -0.020100
Pd      8.73142     11.81456      6.84774         0.025944     -0.040294     -0.041380
Pd     10.01225      9.59343      8.21361         0.033289      0.020196     -0.036262
Pd      8.46216     14.50249      6.63725         0.085895      0.030872      0.036548
Pd     12.30154      9.24700      7.04241        -0.047358     -0.029383     -0.130598
Pd      9.89693      9.67508      5.57774         0.042719      0.051023     -0.000439
Pd      6.91846      9.39017     12.23353         0.015647      0.014319      0.054998
Pd     12.28659      6.70249      7.89528        -0.029075     -0.066770     -0.023337
Pd      5.83726     10.47188      9.85353        -0.025420      0.033270     -0.011914
Pd      7.54087      6.98022     13.22116         0.030592      0.025317     -0.004402
Ir     11.48631      9.66020     13.10778         0.005417     -0.021203     -0.047527
Ir     13.35275      9.19814     11.48640        -0.007577     -0.050445      0.082595
Ir      9.18684      8.79907     13.99731         0.014237     -0.086003      0.012383
Ir     10.35582     10.73758     15.16078         0.015323     -0.026785      0.046609
Ir      7.23757     11.98010     11.49215         0.035564     -0.044618      0.043414
Ir     14.57981     11.10003     10.42847         0.040796      0.006984     -0.003552
Ir     12.30131     10.50321      9.47959        -0.028152      0.063961     -0.072799
Ir      8.91758     11.05962     12.98369        -0.157484     -0.009499     -0.069407
Ir     10.07669     10.01895     10.95517         0.023756      0.037805     -0.065650
Ir     13.46992     11.39217     12.73911        -0.078469      0.011202     -0.063558
Ir     11.20231     12.19192     13.21615         0.057176      0.048616     -0.059872
Ir      8.32868     11.29475      9.34786        -0.006367     -0.019392      0.046691
Ir     11.51863      8.02582     10.00316         0.016246      0.028548     -0.014036
Ir      7.11612     13.18877      8.52487        -0.038624     -0.000972     -0.064117
Ir      9.44159      6.99061      9.22775        -0.053205      0.032465     -0.053627
Ir      7.97637      8.86781      9.97764         0.020468      0.010370      0.041948
Ir     10.70582     12.13891      8.58663         0.010618     -0.025714      0.093979
Ir      9.51010      7.70869     11.71185        -0.054535      0.010747      0.011192
Ir     13.85519      8.50769      9.08052         0.008241     -0.004972     -0.097394
