21
# total energy = -130.20875116 eVH      5.96579      5.96456      7.50000         0.058484      0.012568      0.000000
H      2.20503      8.16185      7.50000        -0.037403      0.039751      0.000000
H      2.18256      3.80630      7.50000        -0.018437     -0.056706      0.000000
H      4.38763      0.01299      7.50000        -0.058484     -0.012568      0.000000
H      8.14839     -2.18430      7.50000         0.037403     -0.039751     -0.000000
H      8.17086      2.17125      7.50000         0.018437      0.056706     -0.000000
C      8.26209     -0.00604      7.50000         0.001811      0.020012      0.000000
C      6.22751      1.18057      7.50000        -0.009070     -0.004957      0.000000
C      6.21736     -1.17474      7.50000        -0.000589     -0.001544     -0.000000
C      2.09133      5.98359      7.50000        -0.001811     -0.020012      0.000000
C      4.12591      4.79698      7.50000         0.009070      0.004957      0.000000
C      4.13606      7.15229      7.50000         0.000589      0.001544      0.000000
C      7.61206     -1.24141      7.50000        -0.032851      0.073231      0.000000
C      7.62250      1.23550      7.50000        -0.050670     -0.079044      0.000000
C      5.47219      0.00605      7.50000         0.094068     -0.012157      0.000000
C      2.74136      7.21896      7.50000         0.032851     -0.073231      0.000000
C      2.73092      4.74205      7.50000         0.050670      0.079044     -0.000000
C      4.88123      5.97150      7.50000        -0.094068      0.012157      0.000000
Au      5.17671     -2.98877      7.50000        -0.000000     -0.000000      0.000000
Au      0.00000      5.97755      7.50000        -0.000000     -0.000000      0.000000
Au      5.17671      2.98877      7.50000        -0.000000     -0.000000      0.000000
