152
# total energy = -1023.22349860 eVH     10.35389      5.87395      7.64558         0.487264      0.081207      0.710253
H     10.62451     15.10445      7.64558        -0.116280     -0.045772      0.814307
H     10.62451      5.87395     13.33282         0.144073      0.126206     -0.633617
H     10.35389     15.10445     13.33282        -0.169355     -0.121808     -0.540595
H      7.64558     10.35389      5.87395         0.311135     -0.022181      0.192755
H      7.64558     10.62451     15.10445         0.645568     -0.221417     -0.140697
H     13.33282     10.62451      5.87395        -0.767072     -0.153926      0.203432
H     13.33282     10.35389     15.10445        -0.427948     -0.101644     -0.067402
H      5.87395      7.64558     10.35389         0.207796      1.104031     -0.276449
H     15.10445      7.64558     10.62451        -0.175458      0.472335     -0.124033
H      5.87395     13.33282     10.62451         0.160094     -0.422586     -0.063564
H     15.10445     13.33282     10.35389        -0.130138     -0.906407      0.015439
H      5.87395     10.35389      7.64558         0.135132      0.094983      0.459993
H     15.10445     10.62451      7.64558         0.100809     -0.028368      1.070539
H      5.87395     10.62451     13.33282         0.196886     -0.032641     -0.386731
H     15.10445     10.35389     13.33282        -0.125850     -0.048423     -0.539261
H     10.35389      7.64558      5.87395         0.129445      0.888417      0.186945
H     10.62451      7.64558     15.10445        -0.012765      0.545459     -0.161469
H     10.62451     13.33282      5.87395        -0.020531     -0.592379      0.222687
H     10.35389     13.33282     15.10445        -0.291839     -0.895209     -0.127470
H      7.64558      5.87395     10.35389         0.441679      0.095368     -0.056282
H      7.64558     15.10445     10.62451         0.849748     -0.277650      0.035151
H     13.33282      5.87395     10.62451        -0.456166      0.185836     -0.065822
H     13.33282     15.10445     10.35389        -0.660484     -0.099805      0.162378
H     12.45634     12.45634     19.01126         0.252838      0.263670     -0.229772
H     19.01126     19.01126     19.01126        -0.251676     -0.231666     -0.261616
H     19.01126     12.45634     12.45634        -0.235858      0.272304      0.240197
H     12.45634     19.01126     12.45634         0.224835     -0.264675      0.249667
C     10.35284      5.61067      6.59456        -0.192551     -0.359130     -0.031575
C     10.62556     15.36773      6.59456         0.069789      0.372552     -1.229545
C     10.62556      5.61067     14.38384        -0.056125     -0.252779      0.801344
C     10.35284     15.36773     14.38384         0.046365      0.891059      0.417755
C      6.59456     10.35284      5.61067        -0.367146     -0.036510     -0.169936
C      6.59456     10.62556     15.36773        -0.829009      0.196769      0.366102
C     14.38384     10.62556      5.61067         0.456563      0.300080     -0.504532
C     14.38384     10.35284     15.36773         0.774555     -0.112800      0.443445
C      5.61067      6.59456     10.35284        -0.314136     -0.656067      0.425806
C     15.36773      6.59456     10.62556         0.170155     -0.516639      0.082239
C      5.61067     14.38384     10.62556        -0.144721      0.387365     -0.022751
C     15.36773     14.38384     10.35284         0.401668     -0.038261     -0.100477
C      5.61067     10.35284      6.59456        -0.258691     -0.020466     -0.781382
C     15.36773     10.62556      6.59456         0.605694     -0.269434     -1.346849
C      5.61067     10.62556     14.38384        -0.340241     -0.000436      0.434098
C     15.36773     10.35284     14.38384         0.486773     -0.165395      1.122518
C     10.35284      6.59456      5.61067        -0.162586     -0.503334     -0.429074
C     10.62556      6.59456     15.36773         0.057651     -0.656727      0.272534
C     10.62556     14.38384      5.61067         0.103278      0.999943     -0.495209
C     10.35284     14.38384     15.36773         0.254899      0.601738      0.539105
C      6.59456      5.61067     10.35284        -0.096189     -0.812286      0.075577
C      6.59456     15.36773     10.62556        -1.527246      0.412694      0.109241
C     14.38384      5.61067     10.62556         0.644949     -0.276286     -0.017728
C     14.38384     15.36773     10.35284        -0.428757      0.677930     -0.308893
C     10.40319      3.19606      7.29314         0.007684      0.833150     -0.291341
C     10.35913      4.25547      6.23373        -0.056019     -0.461311      0.505543
C      0.08601      7.29314      7.29314        -0.007002     -0.257572     -0.507678
C      0.13007      6.23373      6.23373         0.032554      0.149393      0.213178
C      0.08601      3.19606      3.19606        -0.011609      0.641855      0.195859
C      0.13007      4.25547      4.25547        -0.093540     -0.180372     -0.198496
C     10.40319      7.29314      3.19606        -0.007778     -0.648089      0.561510
C     10.35913      6.23373      4.25547        -0.046438      0.270162     -0.612057
C      7.29314     10.40319      3.19606        -0.324582      0.026164      0.938746
C      6.23373     10.35913      4.25547         0.170661      0.028679     -0.125942
C      7.29314      0.08601      7.29314        -0.304576     -0.038436     -0.299635
C      6.23373      0.13007      6.23373         0.330216     -0.051342      0.322167
C      3.19606      0.08601      3.19606         0.527693     -0.034266      0.716401
C      4.25547      0.13007      4.25547        -0.091113     -0.032468     -0.373528
C      3.19606     10.40319      7.29314         0.727811      0.000970     -0.401694
C      4.25547     10.35913      6.23373        -0.154314      0.028462      0.081625
C      3.19606      7.29314     10.40319         0.676680     -1.281113     -0.009372
C      4.25547      6.23373     10.35913        -0.654032      0.918867      0.084515
C      7.29314      7.29314      0.08601        -0.679289     -0.181487     -0.019117
C      6.23373      6.23373      0.13007         0.215562      0.205577      0.016890
C      3.19606      3.19606      0.08601         0.266843      0.293075     -0.021242
C      4.25547      4.25547      0.13007        -0.073476     -0.037982     -0.002673
C      7.29314      3.19606     10.40319        -0.362589      1.013593      0.016797
C      6.23373      4.25547     10.35913         1.059585     -0.032621      0.015614
O     10.43466      3.58206      8.50569        -0.043908      0.048626      0.383517
O     10.54374     17.39634      8.50569        -0.039587     -0.171101      0.585414
O     10.54374      3.58206     12.47271         0.050319      0.062777     -0.313421
O     10.43466     17.39634     12.47271        -0.009222     -0.139976     -0.629446
O      8.50569     10.43466      3.58206         0.351159     -0.028895     -0.030142
O      8.50569     10.54374     17.39634         0.469648      0.045163     -0.145892
O     12.47271     10.54374      3.58206        -0.478367      0.012841      0.079723
O     12.47271     10.43466     17.39634        -0.814187      0.003498     -0.198221
O      3.58206      8.50569     10.43466         0.109260      1.039496      0.017066
O     17.39634      8.50569     10.54374        -0.032517      0.311145      0.074391
O      3.58206     12.47271     10.54374         0.072995     -0.461524      0.051514
O     17.39634     12.47271     10.43466        -0.176030     -0.900280      0.057977
O      3.58206     10.43466      8.50569        -0.065925     -0.069480      0.319273
O     17.39634     10.54374      8.50569        -0.131187      0.041700      0.462499
O      3.58206     10.54374     12.47271         0.090355     -0.025831     -0.645494
O     17.39634     10.43466     12.47271        -0.182844      0.054877     -0.784725
O     10.43466      8.50569      3.58206         0.028143      0.643793      0.155972
O     10.54374      8.50569     17.39634         0.061518      0.441626     -0.084390
O     10.54374     12.47271      3.58206        -0.011193     -0.730428      0.231040
O     10.43466     12.47271     17.39634         0.034266     -0.843044     -0.240140
O      8.50569      3.58206     10.43466         0.439835      0.019361     -0.040366
O      8.50569     17.39634     10.54374         0.689085     -0.263068     -0.061802
O     12.47271      3.58206     10.54374        -0.462087      0.152167      0.042120
O     12.47271     17.39634     10.43466        -0.557423     -0.024049     -0.006497
O     11.90042     11.90042     19.56718        -0.294457     -0.313649      0.256391
O     19.56718     19.56718     19.56718         0.283220      0.263381      0.311772
O     19.56718     11.90042     11.90042         0.260683     -0.321989     -0.243555
O     11.90042     19.56718     11.90042        -0.271644      0.278134     -0.265057
O      9.45224      1.03696      9.45224        -0.082959      0.042384     -0.069223
O      1.03696      9.45224      9.45224         0.015110     -0.169334     -0.096322
O      1.03696      1.03696      1.03696         0.002577      0.069102      0.180447
O      9.45224      9.45224      1.03696        -0.062166     -0.100647      0.108151
Zr     10.48920      2.52580     10.48920         0.001828     -0.095878     -0.052302
Zr     10.48920     18.45260     10.48920         0.129546      0.354883     -0.005887
Zr     10.48920     10.48920      2.52580         0.010362     -0.032400     -0.386973
Zr     10.48920     10.48920     18.45260        -0.157603     -0.060323      0.367597
Zr      2.52580     10.48920     10.48920        -0.328346      0.240703     -0.135898
Zr     18.45260     10.48920     10.48920         0.278278     -0.017392     -0.283669
Pd      9.00687     10.13941     13.30693        -0.026049     -0.022332      0.018624
Pd     10.69719      9.71845     10.87744        -0.008833     -0.048863     -0.039647
Pd     13.73646      8.39554     12.57274        -0.009250      0.003885      0.001690
Pd     11.01967     10.92039     14.96696        -0.027472     -0.015530     -0.013893
Pd     12.89979     11.01957     12.94613         0.005483      0.003150      0.041219
Pd     15.10376     11.10759     11.31382         0.003141     -0.017792      0.004343
Pd      6.60470      7.69947     12.31396        -0.012002      0.027044      0.013723
Pd      9.31895      7.30050      9.87447        -0.011908     -0.012869     -0.012883
Pd      9.22909      7.48042     12.63465         0.004947     -0.006279     -0.009760
Pd     11.63919      7.16191     11.42162        -0.008028      0.003386     -0.003283
Pd     11.69398      8.01223      8.91391         0.013709     -0.027474     -0.019030
Pd      7.38086     11.78257     11.78572        -0.013998     -0.008432     -0.015196
Pd      9.19279     14.75890      9.43675         0.003147     -0.007276      0.004268
Pd      8.40741     12.55852     14.25887        -0.007004     -0.015798     -0.012430
Pd     14.09109     14.25528      8.31302         0.005287     -0.002084     -0.000731
Pd     11.49552     13.65353      8.71979         0.008601     -0.010572      0.016034
Pd     14.16693     11.69623      8.88621        -0.010342     -0.005952      0.003627
Pd      8.71959     14.04055     12.06935        -0.003783      0.000522     -0.003182
Pd     12.27749     13.49880     14.14664        -0.009804      0.001489     -0.013546
Pd     11.34098     14.43430     11.43910         0.005924     -0.003526     -0.004525
Pd     14.07854     13.60549     12.27234         0.006332     -0.013425     -0.002364
Pd     12.42881     12.18225     10.71764        -0.001370     -0.039737      0.011759
Pd     12.75312     12.52522      6.67781        -0.003369     -0.002161     -0.003391
Pd     13.93143      9.00432      7.99705        -0.001436     -0.006853     -0.004033
Pd      6.94121      8.50382      8.76695         0.001423     -0.005893     -0.008554
Pd      5.62590     10.10601     10.73185        -0.000457     -0.002391     -0.045027
Pd      9.39794      9.47995      8.13047        -0.010767     -0.027044     -0.050941
Pd      8.57777      7.04482      7.24281        -0.014473     -0.028466     -0.008974
Pd      9.76434     12.13801     10.35375        -0.019363     -0.010777     -0.030429
Pd     11.63976     10.82010      8.49497        -0.005572      0.003371     -0.012687
Pd     11.58024      9.09693      6.47251         0.012591     -0.005058     -0.008808
Pd     10.08898     11.34737      6.31623        -0.005224      0.006849     -0.008349
Ir     11.30596      8.98830     13.24291        -0.030521      0.054046     -0.064300
Ir     13.22291      9.63044     10.39054        -0.018611     -0.030589     -0.036187
Ir     10.55648     12.23828     12.73094         0.014379     -0.039087      0.052524
Ir      7.59229     11.01142      9.26036         0.017746     -0.030082     -0.006963
Ir      8.84038     12.61058      8.07374         0.044236     -0.009016     -0.011759
Ir      8.19848      9.31440     11.00926        -0.013603     -0.004489     -0.029227
