152
# total energy = -1091.13909092 eVH     10.35389      5.87395      7.64558         0.952215     -2.034453      1.533395
H     10.62451     15.10445      7.64558        -0.480357      1.034230      1.820294
H     10.62451      5.87395     13.33282         0.929595     -0.796345     -2.095156
H     10.35389     15.10445     13.33282        -0.787323      0.843580     -1.945749
H      7.64558     10.35389      5.87395         0.390403     -0.183864      0.014375
H      7.64558     10.62451     15.10445         0.658711     -0.287939      0.154365
H     13.33282     10.62451      5.87395        -0.437394      0.029797      0.100225
H     13.33282     10.35389     15.10445        -0.595170      0.276242      0.034425
H      5.87395      7.64558     10.35389        -0.237860      1.163806      0.264616
H     15.10445      7.64558     10.62451         0.058137      0.803964     -0.019927
H      5.87395     13.33282     10.62451         0.005013     -0.485029     -0.004211
H     15.10445     13.33282     10.35389         0.136655     -1.013452      0.076551
H      5.87395     10.35389      7.64558        -0.047817     -0.026828      0.526153
H     15.10445     10.62451      7.64558         0.165616      0.049802      0.286705
H      5.87395     10.62451     13.33282        -0.121428      0.264677     -0.865938
H     15.10445     10.35389     13.33282         0.190813     -0.281107     -0.039721
H     10.35389      7.64558      5.87395        -0.300626      0.560833     -0.262287
H     10.62451      7.64558     15.10445         0.275524      0.808536      0.396333
H     10.62451     13.33282      5.87395        -0.177539     -1.046053     -0.194910
H     10.35389     13.33282     15.10445        -0.202808     -1.034996      0.321940
H      7.64558      5.87395     10.35389         0.817959     -0.206787      0.105348
H      7.64558     15.10445     10.62451         0.837655     -0.012851     -0.106298
H     13.33282      5.87395     10.62451        -0.842224     -0.062984      0.184358
H     13.33282     15.10445     10.35389        -0.544139      0.137584      0.015322
H     12.45634     12.45634     19.01126         0.261873      0.251105     -0.241284
H     19.01126     19.01126     19.01126        -0.259175     -0.253955     -0.238500
H     19.01126     12.45634     12.45634        -0.252123      0.264542      0.237159
H     12.45634     19.01126     12.45634         0.252251     -0.264890      0.234852
C     10.35284      5.61067      6.59456        -0.482856      0.068446     -2.284652
C     10.62556     15.36773      6.59456         0.262092     -0.146271     -2.005506
C     10.62556      5.61067     14.38384        -0.159023     -0.744990      2.221461
C     10.35284     15.36773     14.38384         0.263716      0.170630      1.938593
C      6.59456     10.35284      5.61067        -0.521145     -0.028764     -0.345565
C      6.59456     10.62556     15.36773        -0.995979     -0.010831      0.538306
C     14.38384     10.62556      5.61067         0.592386      0.005393     -0.204777
C     14.38384     10.35284     15.36773         0.812860     -0.113380      0.293222
C      5.61067      6.59456     10.35284        -0.444519     -0.738030      0.226673
C     15.36773      6.59456     10.62556         0.340047     -1.291280     -0.002574
C      5.61067     14.38384     10.62556        -0.439757      0.928432      0.028103
C     15.36773     14.38384     10.35284         0.457187      0.804533      0.062275
C      5.61067     10.35284      6.59456        -0.565732      0.123173     -1.710877
C     15.36773     10.62556      6.59456         0.675010      0.029394     -1.892092
C      5.61067     10.62556     14.38384        -0.660419      0.036021      1.913842
C     15.36773     10.35284     14.38384         0.656682     -0.116480      1.502102
C     10.35284      6.59456      5.61067         0.093229     -1.576264     -0.924336
C     10.62556      6.59456     15.36773         0.032599     -2.120774      1.185862
C     10.62556     14.38384      5.61067         0.129035      1.592610     -0.719709
C     10.35284     14.38384     15.36773        -0.019426      2.152374      0.960120
C      6.59456      5.61067     10.35284        -0.455721     -0.896025      0.078899
C      6.59456     15.36773     10.62556        -1.566286      0.367992      0.027065
C     14.38384      5.61067     10.62556         1.938341     -0.727432     -0.092205
C     14.38384     15.36773     10.35284         0.354364      0.898690      0.016287
C     10.40319      3.19606      7.29314        -0.023113      0.647826     -0.309437
C     10.35913      4.25547      6.23373         0.100273     -0.872825      0.801850
C      0.08601      7.29314      7.29314        -0.023281     -0.691936     -0.282625
C      0.13007      6.23373      6.23373        -0.145766      0.824606      0.868943
C      0.08601      3.19606      3.19606        -0.072920      0.450451      0.325308
C      0.13007      4.25547      4.25547         0.030187     -0.892496     -0.517349
C     10.40319      7.29314      3.19606         0.038947     -0.384206      0.284453
C     10.35913      6.23373      4.25547         0.038817      0.737832     -0.588362
C      7.29314     10.40319      3.19606        -0.362368      0.025736      0.626735
C      6.23373     10.35913      4.25547         0.318933     -0.002479     -0.400889
C      7.29314      0.08601      7.29314        -0.410446      0.060455     -0.439663
C      6.23373      0.13007      6.23373         0.185403      0.101674      0.557514
C      3.19606      0.08601      3.19606         0.258799      0.021741      0.700326
C      4.25547      0.13007      4.25547        -0.457156      0.151912     -0.342681
C      3.19606     10.40319      7.29314         0.517038     -0.005635     -0.651846
C      4.25547     10.35913      6.23373        -0.374290      0.042697      0.657062
C      3.19606      7.29314     10.40319         0.318138     -0.553883     -0.014255
C      4.25547      6.23373     10.35913        -0.780536      0.317157     -0.080688
C      7.29314      7.29314      0.08601        -0.302245     -0.195255     -0.001606
C      6.23373      6.23373      0.13007         0.075398      0.453129     -0.033843
C      3.19606      3.19606      0.08601         0.408002      0.132455     -0.021264
C      4.25547      4.25547      0.13007        -0.097410     -0.306820     -0.028951
C      7.29314      3.19606     10.40319        -0.409361      0.561161     -0.016074
C      6.23373      4.25547     10.35913         0.538957     -0.723858     -0.054885
O     10.43466      3.58206      8.50569        -0.008175      0.142082      0.281377
O     10.54374     17.39634      8.50569         0.021471     -0.157258      0.282802
O     10.54374      3.58206     12.47271         0.068850      0.190244     -0.343280
O     10.43466     17.39634     12.47271        -0.074197     -0.238528     -0.337308
O      8.50569     10.43466      3.58206         0.460980     -0.013648      0.118641
O      8.50569     10.54374     17.39634         0.477930      0.058177     -0.135734
O     12.47271     10.54374      3.58206        -0.378908      0.029741      0.088013
O     12.47271     10.43466     17.39634        -0.546140     -0.053635     -0.133505
O      3.58206      8.50569     10.43466         0.116844      0.530708     -0.035900
O     17.39634      8.50569     10.54374        -0.141853      0.447252      0.030064
O      3.58206     12.47271     10.54374         0.094592     -0.373193      0.050248
O     17.39634     12.47271     10.43466        -0.207037     -0.617351     -0.005012
O      3.58206     10.43466      8.50569         0.204204     -0.065210      0.583236
O     17.39634     10.54374      8.50569        -0.164321      0.005972      0.480291
O      3.58206     10.54374     12.47271         0.329895     -0.063165     -0.580184
O     17.39634     10.43466     12.47271        -0.208364     -0.006987     -0.591257
O     10.43466      8.50569      3.58206         0.009369      0.488391      0.257125
O     10.54374      8.50569     17.39634         0.102124      0.647017     -0.338582
O     10.54374     12.47271      3.58206         0.015964     -0.557748      0.279101
O     10.43466     12.47271     17.39634        -0.078243     -0.647598     -0.338571
O      8.50569      3.58206     10.43466         0.552195      0.163991     -0.038607
O      8.50569     17.39634     10.54374         0.456867     -0.180599      0.038832
O     12.47271      3.58206     10.54374        -0.498771      0.183507      0.002467
O     12.47271     17.39634     10.43466        -0.529633     -0.166393     -0.028719
O     11.90042     11.90042     19.56718        -0.302910     -0.298041      0.244112
O     19.56718     19.56718     19.56718         0.304998      0.297543      0.241077
O     19.56718     11.90042     11.90042         0.301616     -0.317042     -0.270683
O     11.90042     19.56718     11.90042        -0.292365      0.314275     -0.264027
O      9.45224      1.03696      9.45224        -0.043647      0.037616     -0.110494
O      1.03696      9.45224      9.45224         0.045211     -0.035719     -0.109050
O      1.03696      1.03696      1.03696         0.068894      0.048336      0.082332
O      9.45224      9.45224      1.03696        -0.058301     -0.048130      0.081107
Zr     10.48920      2.52580     10.48920        -0.099243     -0.071359      0.046884
Zr     10.48920     18.45260     10.48920         0.072436      0.077492      0.014985
Zr     10.48920     10.48920      2.52580        -0.012384      0.014358     -0.201077
Zr     10.48920     10.48920     18.45260         0.017631      0.008582      0.270026
Zr      2.52580     10.48920     10.48920        -0.123013      0.007010     -0.052826
Zr     18.45260     10.48920     10.48920         0.179360      0.035476     -0.008220
Pd     13.42188      8.49506      7.98346        -0.108163     -0.216200     -0.115910
Pd      8.76966     14.06454     11.97896        -0.014352      0.246451      0.129870
Pd     12.14928     11.15369     10.66159         0.084083     -0.191841     -0.055664
Pd     14.56587     10.82600     11.78366         0.124779      0.124628     -0.074153
Pd     11.19460      9.13777      6.57088         0.070900     -0.150519     -0.374356
Pd      7.36020      7.53145      9.00520        -0.321405     -0.149983     -0.388625
Ir      9.86332     11.60570     11.97598         0.126168     -0.023451      0.159142
Ir     13.30686      8.69007     10.65306        -0.408468     -0.003108      0.237777
Ir     12.10825     11.08212      7.98561        -0.111721      0.433610      0.013002
Ir      8.83806     13.85902      9.25243         0.050637      0.300633     -0.027582
Ir     10.99316      9.18414     12.05254         0.075651      0.162719     -0.572604
Ir      8.70999      9.53463      8.03563        -0.189298      0.705485     -0.188421
Ir     13.35328     12.97990      9.17692         0.073070      0.067326     -0.040151
Ir     11.16996     13.43656      7.95317         0.100510      0.034180     -0.007757
Ir     14.31166     10.61277      9.27647         0.139218     -0.011234      0.119247
Ir      9.82673      7.05431     10.77016         0.046919     -0.041161     -0.476502
Ir      7.61647     11.98160      7.97910         0.344112      0.043969      0.030992
Ir      9.77912      7.35671      8.12821        -0.146866     -0.299524     -0.025008
Ir     11.24177     13.54505     13.20769         0.442495     -0.216049     -0.254745
Ir     12.11059      6.92098     12.09991        -0.045977     -0.224730     -0.275771
Ir      9.84610     11.46405      9.32954        -0.128184      0.299714     -0.062595
Ir     13.31565      8.65137     13.40974        -0.065316      0.298464     -0.163179
Ir     11.06260      9.11232      9.36043         0.093629      0.106716      0.294663
Ir     11.01258     13.59278     10.54258         0.351715      0.121981      0.025164
Ir     13.29462     13.17251     11.89852        -0.086521      0.139928      0.060168
Ir     12.18967     11.20141     13.28954        -0.096226      0.309721      0.159151
Ir      9.87370     11.39713      6.69632        -0.113677      0.045124      0.139158
Ir     11.97209      6.71765      9.44413         0.043107      0.123940      0.491723
Ir      7.52564      7.57993     12.06682        -0.678463     -0.136662     -0.416652
Ir      7.64405     12.01330     10.64581         0.054015      0.004335     -0.134403
Ir     11.09397      9.33395     14.58379        -0.252039      0.277220      0.098485
Ir      7.57666     12.01053     13.23652         0.005448     -0.195066     -0.054079
Ir      6.49955     10.04174      9.40430         0.178495      0.083833     -0.140597
Ir      8.69975      9.63097     13.33268        -0.176060      0.563117      0.230094
Ir      6.43542      9.86376     11.78031         0.010350      0.421210      0.093160
Ir      9.49862      7.26845     13.36229         0.443262     -0.414947      0.404404
Ir      9.83391     11.57666     14.57267         0.242816     -0.338315     -0.279915
Ir      8.76005      9.44775     10.70139        -0.605695      0.818548     -0.247944
