152
# total energy = -1003.00493112 eVH     10.35389      5.87395      7.64558        -0.044271      0.191740      0.935790
H     10.62451     15.10445      7.64558        -0.097466     -0.130393      1.075801
H     10.62451      5.87395     13.33282        -0.043161      0.009186     -0.989188
H     10.35389     15.10445     13.33282        -0.080336     -0.190906     -0.888927
H      7.64558     10.35389      5.87395         0.832847      0.279192     -0.188915
H      7.64558     10.62451     15.10445         0.770927      0.388711      0.026524
H     13.33282     10.62451      5.87395        -0.492838      0.039838      0.076889
H     13.33282     10.35389     15.10445        -0.667130     -0.206303      0.038491
H      5.87395      7.64558     10.35389        -0.268179      2.062140      0.258106
H     15.10445      7.64558     10.62451        -0.001131      1.229506     -0.067411
H      5.87395     13.33282     10.62451         0.160580     -0.839631     -0.022999
H     15.10445     13.33282     10.35389         0.119368     -1.174655     -0.320568
H      5.87395     10.35389      7.64558        -0.595584      0.262448      1.229904
H     15.10445     10.62451      7.64558         0.155609      0.695790      1.653588
H      5.87395     10.62451     13.33282        -0.210737      0.470107     -1.207954
H     15.10445     10.35389     13.33282         1.161469      0.005636     -1.119682
H     10.35389      7.64558      5.87395         0.454679      1.364423     -0.063724
H     10.62451      7.64558     15.10445         0.391840      0.859970     -0.050862
H     10.62451     13.33282      5.87395        -0.313806     -0.792231      0.053226
H     10.35389     13.33282     15.10445        -0.120711     -0.461481     -0.156710
H      7.64558      5.87395     10.35389         0.938817     -0.161276     -0.090040
H      7.64558     15.10445     10.62451         0.555908     -0.197048     -0.032725
H     13.33282      5.87395     10.62451        -1.023001      0.039213      0.333553
H     13.33282     15.10445     10.35389        -0.414013     -0.093857     -0.047322
H     12.45634     12.45634     19.01126         0.266896      0.233827     -0.245445
H     19.01126     19.01126     19.01126        -0.262177     -0.255061     -0.232208
H     19.01126     12.45634     12.45634        -0.257794      0.267823      0.232214
H     12.45634     19.01126     12.45634         0.265570     -0.264390      0.226665
C     10.35284      5.61067      6.59456        -0.141392     -0.991895     -0.971952
C     10.62556     15.36773      6.59456         0.042634      0.420543     -0.931603
C     10.62556      5.61067     14.38384        -0.116884     -0.638371      1.346619
C     10.35284     15.36773     14.38384         0.099527      0.314361      0.939552
C      6.59456     10.35284      5.61067        -1.576558      0.173452     -0.927265
C      6.59456     10.62556     15.36773        -1.014529      0.242202      0.764708
C     14.38384     10.62556      5.61067         1.315806      0.151992     -0.917190
C     14.38384     10.35284     15.36773         1.309976      0.049690      0.799773
C      5.61067      6.59456     10.35284        -0.753862     -1.217883      0.044110
C     15.36773      6.59456     10.62556         0.544588     -0.388056      0.045072
C      5.61067     14.38384     10.62556        -0.363228      0.934863      0.020096
C     15.36773     14.38384     10.35284         0.364836      1.435650      0.028257
C      5.61067     10.35284      6.59456        -0.320328     -0.029339     -1.478401
C     15.36773     10.62556      6.59456         0.412606     -0.011275     -1.307621
C      5.61067     10.62556     14.38384        -0.316343     -0.031137      1.132080
C     15.36773     10.35284     14.38384         0.083239     -0.058041      1.724626
C     10.35284      6.59456      5.61067         0.002421     -1.211988     -0.648972
C     10.62556      6.59456     15.36773         0.009337     -0.775521      0.589753
C     10.62556     14.38384      5.61067         0.025234      0.698679     -0.503891
C     10.35284     14.38384     15.36773        -0.030209      0.428178      0.377398
C      6.59456      5.61067     10.35284        -0.415688     -1.175623      0.106408
C      6.59456     15.36773     10.62556        -0.672931      0.507356      0.025546
C     14.38384      5.61067     10.62556         0.540557     -0.746578     -0.163316
C     14.38384     15.36773     10.35284         0.379107      0.545991     -0.063588
C     10.40319      3.19606      7.29314        -0.026930      0.321550     -0.998696
C     10.35913      4.25547      6.23373        -0.050601     -0.506878      0.177524
C      0.08601      7.29314      7.29314        -0.022526     -0.650987     -0.327295
C      0.13007      6.23373      6.23373        -0.041623      0.390574      0.419456
C      0.08601      3.19606      3.19606        -0.006934      0.431246      0.508954
C      0.13007      4.25547      4.25547        -0.010523     -0.451069     -0.380490
C     10.40319      7.29314      3.19606        -0.050296     -0.738680      0.249211
C     10.35913      6.23373      4.25547         0.013231      0.268553     -0.644982
C      7.29314     10.40319      3.19606        -0.662613     -0.013897      0.158681
C      6.23373     10.35913      4.25547         0.315985     -0.040264     -0.384824
C      7.29314      0.08601      7.29314        -0.732318     -0.075787     -0.324460
C      6.23373      0.13007      6.23373         0.606915     -0.179566      0.308919
C      3.19606      0.08601      3.19606         0.722910     -0.045743      0.237362
C      4.25547      0.13007      4.25547        -0.487853     -0.265074     -0.401576
C      3.19606     10.40319      7.29314         0.387049      0.003749     -0.156812
C      4.25547     10.35913      6.23373        -0.267940     -0.030062      0.349439
C      3.19606      7.29314     10.40319         0.306653     -0.438890      0.022648
C      4.25547      6.23373     10.35913        -0.880035      0.142821      0.062730
C      7.29314      7.29314      0.08601        -0.419602     -0.374555     -0.022631
C      6.23373      6.23373      0.13007         0.692322      0.086833      0.003158
C      3.19606      3.19606      0.08601         0.778834      0.324588     -0.020673
C      4.25547      4.25547      0.13007        -0.195249     -0.739005     -0.051626
C      7.29314      3.19606     10.40319        -0.435160      0.490277      0.018132
C      6.23373      4.25547     10.35913         0.404189     -0.676821      0.081012
O     10.43466      3.58206      8.50569         0.090807      0.248221      0.804480
O     10.54374     17.39634      8.50569         0.018754     -0.124365      0.377473
O     10.54374      3.58206     12.47271         0.086263      0.162978     -0.525404
O     10.43466     17.39634     12.47271        -0.032508     -0.084016     -0.339174
O      8.50569     10.43466      3.58206         0.678297     -0.077717      0.219579
O      8.50569     10.54374     17.39634         0.740542     -0.034357     -0.235936
O     12.47271     10.54374      3.58206        -0.719714      0.094822      0.258833
O     12.47271     10.43466     17.39634        -0.502669      0.017707     -0.212713
O      3.58206      8.50569     10.43466         0.184153      0.596099     -0.037145
O     17.39634      8.50569     10.54374        -0.150958      0.534664      0.038031
O      3.58206     12.47271     10.54374         0.082283     -0.419780      0.036747
O     17.39634     12.47271     10.43466        -0.158928     -0.579479     -0.034405
O      3.58206     10.43466      8.50569         0.155183     -0.024620      0.318618
O     17.39634     10.54374      8.50569        -0.059490      0.082080      0.349142
O      3.58206     10.54374     12.47271         0.075373      0.052539     -0.310823
O     17.39634     10.43466     12.47271        -0.067976     -0.023243     -0.232601
O     10.43466      8.50569      3.58206        -0.087246      0.707589      0.194170
O     10.54374      8.50569     17.39634        -0.041093      0.663410     -0.197400
O     10.54374     12.47271      3.58206         0.044676     -0.517568      0.115148
O     10.43466     12.47271     17.39634        -0.026192     -0.322301      0.001182
O      8.50569      3.58206     10.43466         0.622762      0.148956     -0.045506
O      8.50569     17.39634     10.54374         0.578242     -0.175814      0.025848
O     12.47271      3.58206     10.54374        -0.743505      0.117605      0.018648
O     12.47271     17.39634     10.43466        -0.544428     -0.135651     -0.033774
O     11.90042     11.90042     19.56718        -0.309534     -0.243587      0.259266
O     19.56718     19.56718     19.56718         0.302379      0.311931      0.251302
O     19.56718     11.90042     11.90042         0.315509     -0.302829     -0.247364
O     11.90042     19.56718     11.90042        -0.320309      0.330976     -0.231980
O      9.45224      1.03696      9.45224        -0.025093      0.101788     -0.097372
O      1.03696      9.45224      9.45224         0.041918     -0.019210     -0.104700
O      1.03696      1.03696      1.03696         0.032874      0.096549      0.091039
O      9.45224      9.45224      1.03696        -0.054827     -0.028895      0.114707
Zr     10.48920      2.52580     10.48920        -0.177154     -0.328477      0.178616
Zr     10.48920     18.45260     10.48920         0.087379      0.085811      0.011652
Zr     10.48920     10.48920      2.52580         0.037267      0.049836     -0.360152
Zr     10.48920     10.48920     18.45260         0.048475     -0.028167      0.283592
Zr      2.52580     10.48920     10.48920        -0.086103     -0.131462      0.006369
Zr     18.45260     10.48920     10.48920         0.099080     -0.003071     -0.018366
Pd     11.94592      8.50509     10.27352        -0.058725     -0.040572     -0.018371
Pd      7.29066      9.86722     10.50302        -0.106141      0.017760     -0.045031
Pd      7.23230     12.18332     11.83195        -0.092518     -0.027382     -0.002166
Pd     12.03217     13.40689      7.54535        -0.003497      0.028666     -0.045881
Pd     11.52819      8.16901      7.53132         0.059807      0.049751     -0.001919
Pd      8.79733      7.34171      7.15046        -0.079274      0.041387      0.055595
Pd     11.65860     11.09609      6.23494        -0.034036      0.100049     -0.058846
Pd     13.85432      9.26534      7.64467        -0.101508     -0.084353      0.031785
Pd      9.53668     11.87188      7.59692         0.012675      0.044750     -0.028614
Pd      7.04417      7.39654     11.94506         0.040099     -0.025508     -0.046700
Pd      7.02332      7.63539      8.91337        -0.020413     -0.008083     -0.129810
Pd      7.49913      9.62714     13.19459        -0.022428     -0.052650      0.119096
Pd     11.34560      5.92088      9.22227         0.052673      0.074933      0.015537
Pd      9.56652      9.64963      6.00221         0.038867     -0.000988      0.074519
Pd      9.34572     14.16726      8.97304        -0.046951     -0.016435     -0.005087
Pd     11.44886      6.41804     11.82083         0.005238      0.048017     -0.040754
Pd      9.76703      9.37508      9.00446         0.047734     -0.082223      0.067795
Pd      9.39471     11.71932     10.26925         0.065547     -0.020476      0.005464
Pd      9.32200      7.11392     10.36817        -0.009785      0.027731     -0.028941
Pd      9.10393      7.33429     13.52138        -0.025584     -0.095832      0.106938
Pd      9.56602      9.32344     11.68795         0.002299     -0.027640     -0.032744
Pd     11.90562     10.90199      8.83137        -0.099236     -0.020724     -0.058003
Pd      7.21306     12.40593      9.03898        -0.115653     -0.030978      0.039942
Pd      7.63512      9.95263      7.90015        -0.094232     -0.007566      0.040201
Pd     13.73715      6.99003      8.85955         0.061525      0.027502     -0.056723
Pd     13.79676      7.78999     12.14564         0.018723     -0.051235      0.018523
Pd      9.47546     11.66438     13.10950        -0.008686     -0.048782      0.008837
Pd     14.16098     12.28035      8.72620        -0.054638      0.028456      0.022576
Pd     13.49521     10.35120     12.77328         0.191339     -0.027867      0.136774
Pd     14.11451      9.99451     10.23714         0.052683      0.017059     -0.008539
Pd     11.55902     11.02565     11.44566        -0.228356      0.027762     -0.157219
Pd     11.60544     13.40092     10.12731        -0.039074     -0.025536     -0.046403
Pd     13.77155     12.55725     11.41873        -0.001025     -0.001171     -0.001351
Pd     11.71645     13.38317     12.85677         0.009963      0.007150      0.003597
Pd     11.68321     11.29571     14.49377        -0.073798     -0.039861     -0.011296
Pd     11.51549      8.74358     13.24846        -0.051329     -0.070447      0.081494
Pd      9.59786      9.67224     14.94402         0.038646      0.032143     -0.006027
Pd      9.34935     13.98816     11.65878        -0.073397     -0.058238     -0.017311
