152
# total energy = -1022.66859524 eVH     10.35389      5.87395      7.64558         0.453149      0.016739      0.953073
H     10.62451     15.10445      7.64558         0.001293      0.000787      0.703701
H     10.62451      5.87395     13.33282         0.135067      0.112626     -0.610447
H     10.35389     15.10445     13.33282        -0.273413     -0.069583     -0.552361
H      7.64558     10.35389      5.87395         0.352976     -0.056523      0.195835
H      7.64558     10.62451     15.10445         0.619888     -0.166339     -0.136321
H     13.33282     10.62451      5.87395        -0.963830     -0.428069      0.106879
H     13.33282     10.35389     15.10445        -0.481555     -0.082954     -0.050884
H      5.87395      7.64558     10.35389         0.091724      1.194257     -0.099591
H     15.10445      7.64558     10.62451        -0.170386      0.397305     -0.078480
H      5.87395     13.33282     10.62451         0.143484     -0.392489     -0.068599
H     15.10445     13.33282     10.35389        -0.083505     -0.967978     -0.276158
H      5.87395     10.35389      7.64558         0.122233      0.009154      0.446744
H     15.10445     10.62451      7.64558         0.143720     -0.201598      0.750702
H      5.87395     10.62451     13.33282         0.271979     -0.037809     -0.409137
H     15.10445     10.35389     13.33282        -0.151082      0.031591     -0.630724
H     10.35389      7.64558      5.87395         0.150766      0.844322      0.103344
H     10.62451      7.64558     15.10445         0.018824      0.643939     -0.130905
H     10.62451     13.33282      5.87395         0.194679     -0.586793      0.180384
H     10.35389     13.33282     15.10445        -0.227840     -0.894532     -0.113447
H      7.64558      5.87395     10.35389         0.523989      0.029764     -0.162932
H      7.64558     15.10445     10.62451         0.917826     -0.185142      0.314105
H     13.33282      5.87395     10.62451        -0.427796      0.190765     -0.066263
H     13.33282     15.10445     10.35389        -0.995765     -0.071440      0.255244
H     12.45634     12.45634     19.01126         0.269957      0.258257     -0.221997
H     19.01126     19.01126     19.01126        -0.248476     -0.235327     -0.261731
H     19.01126     12.45634     12.45634        -0.244105      0.271215      0.236317
H     12.45634     19.01126     12.45634         0.207621     -0.284884      0.255266
C     10.35284      5.61067      6.59456        -0.103240     -0.430754     -0.553876
C     10.62556     15.36773      6.59456         0.013602      0.337010     -1.023401
C     10.62556      5.61067     14.38384        -0.012128     -0.263295      0.729743
C     10.35284     15.36773     14.38384         0.212473      0.735775      0.074391
C      6.59456     10.35284      5.61067        -0.492456     -0.044568     -0.218923
C      6.59456     10.62556     15.36773        -0.807396      0.143555      0.373868
C     14.38384     10.62556      5.61067         0.890797      0.285181     -0.339756
C     14.38384     10.35284     15.36773         0.752850     -0.124897      0.429717
C      5.61067      6.59456     10.35284        -0.410431     -0.873630      0.217727
C     15.36773      6.59456     10.62556         0.208023     -0.481603      0.041016
C      5.61067     14.38384     10.62556        -0.260454      0.381159     -0.014627
C     15.36773     14.38384     10.35284         0.349281      0.241904      0.252655
C      5.61067     10.35284      6.59456        -0.317342      0.002702     -0.865263
C     15.36773     10.62556      6.59456         0.538433     -0.137234     -1.226320
C      5.61067     10.62556     14.38384        -0.493487      0.007157      1.012255
C     15.36773     10.35284     14.38384         0.545052     -0.184805      1.278957
C     10.35284      6.59456      5.61067        -0.027120     -0.962433     -0.684263
C     10.62556      6.59456     15.36773         0.050709     -0.790498      0.346014
C     10.62556     14.38384      5.61067        -0.002910      1.348351     -0.731124
C     10.35284     14.38384     15.36773         0.071625      0.609275      0.637647
C      6.59456      5.61067     10.35284        -0.223199     -0.905458      0.128822
C      6.59456     15.36773     10.62556        -1.749916      0.492887      0.032176
C     14.38384      5.61067     10.62556         0.565596     -0.224031     -0.003720
C     14.38384     15.36773     10.35284         0.336488      0.502186     -0.220443
C     10.40319      3.19606      7.29314         0.018845      0.949271     -0.241221
C     10.35913      4.25547      6.23373        -0.046543     -0.319468      0.673553
C      0.08601      7.29314      7.29314        -0.010326     -0.225139     -0.459601
C      0.13007      6.23373      6.23373        -0.008006      0.132624      0.189968
C      0.08601      3.19606      3.19606        -0.020708      0.690582      0.161892
C      0.13007      4.25547      4.25547        -0.097581     -0.192496     -0.168838
C     10.40319      7.29314      3.19606        -0.000923     -0.667258      0.501213
C     10.35913      6.23373      4.25547         0.003075      0.546272     -0.327154
C      7.29314     10.40319      3.19606        -0.390017      0.019461      0.849105
C      6.23373     10.35913      4.25547         0.227285      0.005807     -0.159866
C      7.29314      0.08601      7.29314        -0.304035     -0.049364     -0.248238
C      6.23373      0.13007      6.23373         0.263461     -0.070454      0.268459
C      3.19606      0.08601      3.19606         0.370963     -0.055315      1.321137
C      4.25547      0.13007      4.25547        -0.148763     -0.016493     -0.437977
C      3.19606     10.40319      7.29314         0.727725      0.016618     -0.265367
C      4.25547     10.35913      6.23373        -0.130591      0.036530      0.120254
C      3.19606      7.29314     10.40319         0.560816     -1.261234      0.036719
C      4.25547      6.23373     10.35913        -0.743633      0.763920      0.032672
C      7.29314      7.29314      0.08601        -0.645560     -0.174675     -0.025066
C      6.23373      6.23373      0.13007         0.171008      0.267607     -0.015271
C      3.19606      3.19606      0.08601         0.248391      0.256394     -0.020574
C      4.25547      4.25547      0.13007        -0.053081     -0.034533      0.017099
C      7.29314      3.19606     10.40319        -0.365134      0.732512      0.025362
C      6.23373      4.25547     10.35913         0.791791     -0.190361      0.028698
O     10.43466      3.58206      8.50569        -0.053549      0.023471      0.300210
O     10.54374     17.39634      8.50569        -0.019676     -0.190190      0.607265
O     10.54374      3.58206     12.47271         0.062410      0.051589     -0.302889
O     10.43466     17.39634     12.47271        -0.025356     -0.123706     -0.565208
O      8.50569     10.43466      3.58206         0.404942     -0.011868     -0.003690
O      8.50569     10.54374     17.39634         0.466503      0.056938     -0.144023
O     12.47271     10.54374      3.58206        -0.243765      0.061865     -0.100772
O     12.47271     10.43466     17.39634        -0.849276      0.023979     -0.213458
O      3.58206      8.50569     10.43466         0.033629      0.901779      0.041679
O     17.39634      8.50569     10.54374        -0.036513      0.346584      0.079508
O      3.58206     12.47271     10.54374         0.066631     -0.424755      0.060158
O     17.39634     12.47271     10.43466        -0.162272     -0.737135      0.013297
O      3.58206     10.43466      8.50569        -0.055445     -0.061933      0.229992
O     17.39634     10.54374      8.50569        -0.133625      0.042529      0.446711
O      3.58206     10.54374     12.47271        -0.043545     -0.058574     -0.868879
O     17.39634     10.43466     12.47271        -0.190089      0.038338     -0.749356
O     10.43466      8.50569      3.58206         0.033620      0.683603      0.195853
O     10.54374      8.50569     17.39634         0.053739      0.410229     -0.074639
O     10.54374     12.47271      3.58206        -0.031471     -0.739591      0.244932
O     10.43466     12.47271     17.39634         0.056156     -0.854227     -0.278986
O      8.50569      3.58206     10.43466         0.500160      0.089984     -0.040982
O      8.50569     17.39634     10.54374         0.652419     -0.242528     -0.057917
O     12.47271      3.58206     10.54374        -0.499785      0.160762      0.041827
O     12.47271     17.39634     10.43466        -0.497178     -0.033726     -0.040214
O     11.90042     11.90042     19.56718        -0.306173     -0.311034      0.262293
O     19.56718     19.56718     19.56718         0.290416      0.274247      0.320934
O     19.56718     11.90042     11.90042         0.283076     -0.328103     -0.237964
O     11.90042     19.56718     11.90042        -0.221887      0.294882     -0.241703
O      9.45224      1.03696      9.45224        -0.072098      0.057086     -0.064367
O      1.03696      9.45224      9.45224         0.067362     -0.140444     -0.051225
O      1.03696      1.03696      1.03696         0.047269      0.031070      0.188327
O      9.45224      9.45224      1.03696        -0.036310     -0.085401      0.129188
Zr     10.48920      2.52580     10.48920        -0.003116     -0.076610     -0.029893
Zr     10.48920     18.45260     10.48920         0.040786      0.290543     -0.067243
Zr     10.48920     10.48920      2.52580        -0.087846     -0.022071     -0.373753
Zr     10.48920     10.48920     18.45260        -0.143611     -0.184036      0.308808
Zr      2.52580     10.48920     10.48920        -0.325506      0.331855     -0.478534
Zr     18.45260     10.48920     10.48920         0.221369      0.037888     -0.275780
Pd      9.05510     10.28330     13.39873        -0.003564     -0.007851     -0.030370
Pd     10.63255      9.72661     11.12496        -0.026501      0.020491     -0.037145
Pd     13.76375      8.54513     12.75138        -0.005660      0.000573     -0.033945
Pd     11.00644     11.10904     15.07242        -0.003457     -0.008846     -0.021809
Pd     12.83946     11.18664     13.06197         0.014845      0.006889     -0.008102
Pd     14.96880     10.88458     11.36202        -0.003730      0.016235     -0.004371
Pd      6.68469      7.41249     12.31888        -0.013988      0.002767      0.010267
Pd      9.22668      7.27344     10.21360        -0.006380     -0.003327     -0.023087
Pd      9.26161      7.64323     12.86861         0.000904     -0.009454     -0.023559
Pd     11.71015      7.26901     11.55021        -0.012531      0.020016     -0.047919
Pd     11.36001      7.96642      8.91423        -0.010156      0.010032     -0.027382
Pd      7.23549     11.82999     12.01612         0.010920      0.007564     -0.018608
Pd      8.88855     14.65230      9.33445        -0.004534      0.015582      0.004764
Pd      8.42675     12.69809     14.34087        -0.000863     -0.013435     -0.010964
Pd     13.32700     13.98133      8.64849         0.060430      0.040099     -0.026807
Pd     10.83746     13.20128      8.45264         0.053157      0.050072      0.015195
Pd     14.05333     11.43330      8.95164         0.015949      0.031232     -0.007975
Pd      8.62747     14.09367     12.08759         0.002126      0.006473      0.004314
Pd     12.23946     13.76124     14.00245         0.005593      0.000526      0.014243
Pd     11.14198     14.39615     11.06672         0.008705      0.016307      0.026061
Pd     14.07523     13.50529     12.16881        -0.002801      0.025040      0.004805
Pd     12.30686     12.12096     10.69463         0.008638      0.013091     -0.015531
Pd     12.53395     12.12270      6.76748         0.049245      0.076337     -0.007065
Pd     13.57457      8.92487      7.89879         0.011747      0.005624      0.010324
Pd      6.87612      8.44602      8.90913        -0.014965      0.006396     -0.028976
Pd      5.52251      9.87635     11.33154        -0.007465      0.016470     -0.011055
Pd      9.02961      9.85262      8.22147         0.037257     -0.046091      0.049337
Pd      8.91099      7.31777      7.54321        -0.038901     -0.043398     -0.017853
Pd      9.47262     12.02854     10.44116         0.023168      0.026377      0.002458
Pd     11.44311     10.62344      8.70943         0.029130      0.049264     -0.043225
Pd     11.12219      9.35116      6.46357         0.048185     -0.043349     -0.014549
Pd      9.73464     11.67063      6.30213         0.062556     -0.055922      0.043834
Ir     11.37186      9.08763     13.48321        -0.006518      0.005959     -0.039783
Ir     13.07711      9.39808     10.42729        -0.007339      0.036928     -0.013271
Ir     10.53649     12.36308     12.70937         0.007323      0.002297     -0.003779
Ir      7.04942     10.97376      9.57068         0.038822      0.023452     -0.038327
Ir      8.27012     12.44784      8.21059         0.035634     -0.019436      0.002686
Ir      8.09495      9.34165     11.15354        -0.002106     -0.028278     -0.004185
