152
# total energy = -1060.30893688 eVH     10.35389      5.87395      7.64558        -0.190039      0.131557      1.002256
H     10.62451     15.10445      7.64558         0.255754     -0.089139      0.807818
H     10.62451      5.87395     13.33282        -0.280055      0.079366     -0.741167
H     10.35389     15.10445     13.33282         0.148134     -0.272811     -0.769234
H      7.64558     10.35389      5.87395         0.889645     -0.245066      0.205607
H      7.64558     10.62451     15.10445         0.265424     -0.002970     -0.066234
H     13.33282     10.62451      5.87395        -0.841315      0.130227      0.192825
H     13.33282     10.35389     15.10445        -0.290060     -0.056891     -0.050739
H      5.87395      7.64558     10.35389         0.095706      0.429543      0.001512
H     15.10445      7.64558     10.62451        -0.083610      0.490667      0.062701
H      5.87395     13.33282     10.62451         0.021264     -0.945087      0.111851
H     15.10445     13.33282     10.35389        -0.158720     -0.370748      0.019791
H      5.87395     10.35389      7.64558         0.318029      0.053763      0.366377
H     15.10445     10.62451      7.64558        -0.121854     -0.136840      0.614901
H      5.87395     10.62451     13.33282        -0.043594      0.421591     -0.665647
H     15.10445     10.35389     13.33282         0.150799     -0.462422     -0.920485
H     10.35389      7.64558      5.87395         0.012152      0.483441      0.334512
H     10.62451      7.64558     15.10445         0.320067      0.785698     -0.046905
H     10.62451     13.33282      5.87395         0.086490     -0.570170      0.211568
H     10.35389     13.33282     15.10445         0.087805     -0.328105     -0.142318
H      7.64558      5.87395     10.35389         0.381852      0.123915      0.058850
H      7.64558     15.10445     10.62451         0.378976     -0.128280      0.205325
H     13.33282      5.87395     10.62451        -0.313578      0.133582     -0.009183
H     13.33282     15.10445     10.35389        -0.656480     -0.170677      0.200327
H     12.45634     12.45634     19.01126         0.262936      0.272614     -0.220973
H     19.01126     19.01126     19.01126        -0.254161     -0.265226     -0.238693
H     19.01126     12.45634     12.45634        -0.245848      0.271563      0.237329
H     12.45634     19.01126     12.45634         0.293169     -0.229803      0.236240
C     10.35284      5.61067      6.59456         0.363119     -0.375814     -1.298448
C     10.62556     15.36773      6.59456        -0.242594      0.664674     -0.704427
C     10.62556      5.61067     14.38384         0.359141     -0.268523      0.749643
C     10.35284     15.36773     14.38384        -0.183875      0.323293      0.943138
C      6.59456     10.35284      5.61067        -1.316820      0.028884     -0.195510
C      6.59456     10.62556     15.36773        -0.600493      0.064044      0.339697
C     14.38384     10.62556      5.61067         1.390616     -0.172373     -0.628256
C     14.38384     10.35284     15.36773         0.338434     -0.127519      0.381994
C      5.61067      6.59456     10.35284        -0.262373     -0.639339     -0.022902
C     15.36773      6.59456     10.62556         0.400849     -0.841954     -0.046683
C      5.61067     14.38384     10.62556        -0.160610      1.100874     -0.202734
C     15.36773     14.38384     10.35284         0.453255      0.734309     -0.049520
C      5.61067     10.35284      6.59456        -0.360804     -0.125299     -0.715886
C     15.36773     10.62556      6.59456         0.340374      0.123662     -0.580090
C      5.61067     10.62556     14.38384        -0.322908     -0.150078      1.225238
C     15.36773     10.35284     14.38384         0.168381      0.202561      1.289888
C     10.35284      6.59456      5.61067        -0.064571     -0.683793     -0.443103
C     10.62556      6.59456     15.36773        -0.121607     -1.011359      0.372506
C     10.62556     14.38384      5.61067        -0.501074      0.400388     -0.733503
C     10.35284     14.38384     15.36773        -0.159669      0.641190      0.494390
C      6.59456      5.61067     10.35284        -0.550619     -0.327109      0.019200
C      6.59456     15.36773     10.62556        -0.287433      0.443035      0.084388
C     14.38384      5.61067     10.62556         0.435887     -0.317817      0.013596
C     14.38384     15.36773     10.35284         1.112694      0.424338     -0.115639
C     10.40319      3.19606      7.29314        -0.010084      0.907737     -0.364100
C     10.35913      4.25547      6.23373         0.015954     -0.335026      0.313522
C      0.08601      7.29314      7.29314        -0.016362     -0.476732     -0.517516
C      0.13007      6.23373      6.23373        -0.062032      0.801207      0.103564
C      0.08601      3.19606      3.19606        -0.008314      0.662796      0.248024
C      0.13007      4.25547      4.25547         0.066847     -0.260133     -0.561427
C     10.40319      7.29314      3.19606        -0.057328     -1.077836      0.710520
C     10.35913      6.23373      4.25547        -0.063484      0.334179     -0.187620
C      7.29314     10.40319      3.19606        -1.072815     -0.053760      0.232301
C      6.23373     10.35913      4.25547         0.379272      0.113215     -0.527619
C      7.29314      0.08601      7.29314        -0.637137      0.018853     -0.369357
C      6.23373      0.13007      6.23373         0.169606      0.096389      0.097878
C      3.19606      0.08601      3.19606         0.663821      0.008823      0.165384
C      4.25547      0.13007      4.25547        -0.195036     -0.080684     -0.328112
C      3.19606     10.40319      7.29314         0.514950     -0.030183     -0.957390
C      4.25547     10.35913      6.23373        -0.135236     -0.036661      0.160989
C      3.19606      7.29314     10.40319         0.686198     -0.376897      0.008747
C      4.25547      6.23373     10.35913        -0.118834      0.181315     -0.001190
C      7.29314      7.29314      0.08601        -0.455723     -0.289429     -0.012176
C      6.23373      6.23373      0.13007         0.162358      0.142877     -0.107992
C      3.19606      3.19606      0.08601         0.327478      0.537575     -0.016557
C      4.25547      4.25547      0.13007        -0.442034     -0.260568     -0.025830
C      7.29314      3.19606     10.40319        -0.291646      0.597635     -0.003013
C      6.23373      4.25547     10.35913         0.008332     -0.133705      0.019002
O     10.43466      3.58206      8.50569        -0.030509      0.039065      0.247465
O     10.54374     17.39634      8.50569         0.054859     -0.091026      0.537874
O     10.54374      3.58206     12.47271         0.032166      0.110053     -0.408846
O     10.43466     17.39634     12.47271         0.092112     -0.059151     -0.473192
O      8.50569     10.43466      3.58206         0.710631     -0.067153      0.025175
O      8.50569     10.54374     17.39634         0.688114      0.071102     -0.108608
O     12.47271     10.54374      3.58206        -0.619805      0.130205      0.210912
O     12.47271     10.43466     17.39634        -0.368246      0.001100      0.028950
O      3.58206      8.50569     10.43466         0.018757      0.421957     -0.070099
O     17.39634      8.50569     10.54374        -0.057134      0.440623      0.058931
O      3.58206     12.47271     10.54374         0.117229     -0.619127     -0.001154
O     17.39634     12.47271     10.43466        -0.205470     -0.742956     -0.032138
O      3.58206     10.43466      8.50569         0.194673     -0.043246      0.786877
O     17.39634     10.54374      8.50569        -0.007583      0.060847      0.371733
O      3.58206     10.54374     12.47271         0.001617      0.000498     -0.277769
O     17.39634     10.43466     12.47271         0.010668     -0.009703     -0.269690
O     10.43466      8.50569      3.58206        -0.110614      0.523145     -0.090560
O     10.54374      8.50569     17.39634         0.059671      0.560962     -0.073447
O     10.54374     12.47271      3.58206         0.098695     -0.596061      0.119971
O     10.43466     12.47271     17.39634        -0.044363     -0.824351     -0.316476
O      8.50569      3.58206     10.43466         0.399875      0.025659     -0.056096
O      8.50569     17.39634     10.54374         0.647105     -0.154944      0.037308
O     12.47271      3.58206     10.54374        -0.527052      0.117604      0.022228
O     12.47271     17.39634     10.43466        -0.660290     -0.123825      0.050034
O     11.90042     11.90042     19.56718        -0.274203     -0.294091      0.214496
O     19.56718     19.56718     19.56718         0.313498      0.312099      0.289320
O     19.56718     11.90042     11.90042         0.279436     -0.319784     -0.241267
O     11.90042     19.56718     11.90042        -0.314497      0.221604     -0.207660
O      9.45224      1.03696      9.45224        -0.092505      0.118695     -0.062936
O      1.03696      9.45224      9.45224         0.131004     -0.132444     -0.055313
O      1.03696      1.03696      1.03696         0.089536      0.071260      0.078602
O      9.45224      9.45224      1.03696        -0.071817     -0.137658      0.127885
Zr     10.48920      2.52580     10.48920         0.040805     -0.134937      0.163007
Zr     10.48920     18.45260     10.48920        -0.191797      0.263689     -0.340422
Zr     10.48920     10.48920      2.52580         0.126457      0.358908     -0.294540
Zr     10.48920     10.48920     18.45260        -0.086991     -0.247750      0.310720
Zr      2.52580     10.48920     10.48920        -0.271466      0.106684      0.273157
Zr     18.45260     10.48920     10.48920         0.178592     -0.144925     -0.044476
Pd      9.36273     14.42453      9.19347        -0.024537     -0.049312      0.084340
Pd      8.62709     13.62897     13.14871        -0.035245      0.046711     -0.024239
Pd     12.06729     14.39218      8.79879        -0.086243     -0.061178      0.020522
Pd     12.61030     12.82998     10.79361        -0.094869      0.108513     -0.062275
Pd     12.14871      7.17260     12.66682        -0.079902     -0.086970      0.002705
Pd     11.12610     15.00958     11.38479        -0.062792      0.039486      0.006967
Pd      9.90653     12.70799     10.97915         0.012390     -0.001639      0.005621
Pd     13.51771     12.24091      8.00731         0.069656     -0.039093      0.032164
Pd     11.54342     11.60825      6.12143        -0.058985      0.064976     -0.042197
Pd      7.91153      8.26006      7.47902         0.032966     -0.020635      0.089533
Pd      8.70407     11.74965      6.84588        -0.003588      0.044403      0.032967
Pd     10.20736      9.43552      8.19414         0.006523      0.098952      0.008740
Pd      8.46199     14.45112      6.70848         0.010014      0.015948     -0.055406
Pd     12.34119      9.12735      6.75225         0.046317      0.045504      0.115522
Pd      9.77968      9.66712      5.56505         0.004023     -0.084306      0.026814
Pd      6.89035      9.47123     12.16739        -0.031538      0.028013      0.008151
Pd     12.24772      6.76935      8.01301        -0.008742     -0.044693     -0.077593
Pd      5.91879     10.53519      9.71150        -0.064121     -0.049767      0.084204
Pd      7.51692      7.18856     13.33804         0.011062     -0.100707      0.046531
Ir     11.63208      9.72750     13.08904         0.048589     -0.025841     -0.034007
Ir     13.49309      9.12298     11.51697        -0.064560      0.074670     -0.009759
Ir      9.36472      8.82754     14.02930        -0.149250     -0.055246      0.032429
Ir     10.47629     10.84507     15.08983        -0.030608     -0.033933      0.066446
Ir      7.28852     12.00019     11.40043         0.135044     -0.019851      0.057518
Ir     14.58400     10.99985     10.25617        -0.035556      0.042039      0.153776
Ir     12.18345     10.56446      9.56433         0.106247     -0.181767      0.031275
Ir      8.90888     11.03040     12.99274        -0.164277      0.167771     -0.172281
Ir     10.11005      9.94953     11.06230         0.006612      0.023236     -0.155103
Ir     13.56343     11.43023     12.64114        -0.011679     -0.086347      0.065116
Ir     11.26998     12.25828     13.09668         0.138769     -0.005303      0.147902
Ir      8.47821     11.12819      9.33779        -0.122131      0.182314     -0.099375
Ir     11.59122      8.01519     10.18486         0.121579      0.050485     -0.242253
Ir      7.22373     13.07354      8.68371         0.008620      0.071579     -0.059302
Ir      9.54470      6.94619      9.24376        -0.006559      0.018288      0.046817
Ir      8.03636      8.77252     10.01907        -0.015416      0.059888     -0.005681
Ir     10.71608     12.14505      8.48730        -0.053180      0.004893     -0.034012
Ir      9.50558      7.63762     11.75596         0.037151     -0.097834      0.030585
Ir     13.78292      8.75211      8.95207        -0.087880      0.009568      0.091661
