152
# total energy = -1003.59175722 eVH     10.35389      5.87395      7.64558        -0.104390      0.158986      0.751982
H     10.62451     15.10445      7.64558        -0.447521     -0.079789      0.973795
H     10.62451      5.87395     13.33282         0.303474     -0.040186     -0.793430
H     10.35389     15.10445     13.33282         0.028253     -0.166883     -0.544733
H      7.64558     10.35389      5.87395         0.538453      0.089405     -0.023731
H      7.64558     10.62451     15.10445         0.725365      0.536559     -0.054321
H     13.33282     10.62451      5.87395        -0.598543     -0.076502      0.290438
H     13.33282     10.35389     15.10445        -0.603988     -0.126285     -0.073781
H      5.87395      7.64558     10.35389         0.041897      1.686127      0.247902
H     15.10445      7.64558     10.62451        -0.052857      0.696074      0.047420
H      5.87395     13.33282     10.62451         0.218433     -0.817768      0.135912
H     15.10445     13.33282     10.35389         0.002102     -1.130121     -0.043862
H      5.87395     10.35389      7.64558        -0.032704      0.090455      0.768692
H     15.10445     10.62451      7.64558        -0.088228      0.716657      1.364554
H      5.87395     10.62451     13.33282        -0.029121      0.384522     -1.399071
H     15.10445     10.35389     13.33282         0.558617      0.058454     -1.030854
H     10.35389      7.64558      5.87395         0.330515      1.480032     -0.063500
H     10.62451      7.64558     15.10445         0.542633      1.019456     -0.065972
H     10.62451     13.33282      5.87395        -0.641888     -0.770507      0.147180
H     10.35389     13.33282     15.10445        -0.061783     -0.427606     -0.193158
H      7.64558      5.87395     10.35389         1.091129     -0.176441     -0.257763
H      7.64558     15.10445     10.62451         0.753081     -0.189496      0.117542
H     13.33282      5.87395     10.62451        -0.891321      0.076856      0.490904
H     13.33282     15.10445     10.35389        -0.326210     -0.086708     -0.035430
H     12.45634     12.45634     19.01126         0.269114      0.234375     -0.247377
H     19.01126     19.01126     19.01126        -0.267778     -0.260630     -0.226214
H     19.01126     12.45634     12.45634        -0.270354      0.254765      0.236071
H     12.45634     19.01126     12.45634         0.257591     -0.274083      0.230810
C     10.35284      5.61067      6.59456        -0.095107     -0.924517     -0.807561
C     10.62556     15.36773      6.59456         0.193254      0.360027     -0.528869
C     10.62556      5.61067     14.38384        -0.314591     -0.758915      0.743535
C     10.35284     15.36773     14.38384         0.004626      0.209344      0.622727
C      6.59456     10.35284      5.61067        -0.795551      0.080586     -0.493429
C      6.59456     10.62556     15.36773        -0.717739      0.194740      0.788743
C     14.38384     10.62556      5.61067         0.826933      0.027001     -0.827428
C     14.38384     10.35284     15.36773         1.144870      0.012807      0.717568
C      5.61067      6.59456     10.35284        -0.750560     -0.729111     -0.265307
C     15.36773      6.59456     10.62556         0.652158      0.221423     -0.159046
C      5.61067     14.38384     10.62556        -0.375082      0.864183     -0.063158
C     15.36773     14.38384     10.35284         0.425602      1.239808     -0.216476
C      5.61067     10.35284      6.59456        -0.297175      0.004863     -0.933418
C     15.36773     10.62556      6.59456         0.320426     -0.209195     -0.909477
C      5.61067     10.62556     14.38384        -0.416437     -0.066003      1.155850
C     15.36773     10.35284     14.38384         0.082295     -0.015434      1.385644
C     10.35284      6.59456      5.61067        -0.090641     -1.245014     -0.494180
C     10.62556      6.59456     15.36773        -0.091890     -0.873968      0.734230
C     10.62556     14.38384      5.61067        -0.001896      1.038897     -0.696637
C     10.35284     14.38384     15.36773        -0.024299      0.463058      0.252203
C      6.59456      5.61067     10.35284        -0.627966     -1.270338      0.168011
C      6.59456     15.36773     10.62556        -0.848522      0.365094      0.003633
C     14.38384      5.61067     10.62556         0.154560     -0.640876     -0.141363
C     14.38384     15.36773     10.35284         0.108915      0.541325     -0.033057
C     10.40319      3.19606      7.29314        -0.004557      0.351300     -1.071926
C     10.35913      4.25547      6.23373        -0.021916     -0.445525      0.140612
C      0.08601      7.29314      7.29314        -0.048454     -0.923033     -0.280996
C      0.13007      6.23373      6.23373         0.046349      0.408122      0.596817
C      0.08601      3.19606      3.19606         0.007042      0.981285      0.329743
C      0.13007      4.25547      4.25547         0.047368     -0.538827     -0.396680
C     10.40319      7.29314      3.19606        -0.013810     -0.485605      0.208934
C     10.35913      6.23373      4.25547        -0.005680      0.228668     -0.582266
C      7.29314     10.40319      3.19606        -0.292279      0.011766      0.180513
C      6.23373     10.35913      4.25547         0.184773     -0.018385     -0.268035
C      7.29314      0.08601      7.29314        -0.942520     -0.089050     -0.348144
C      6.23373      0.13007      6.23373         0.642894     -0.202282      0.327110
C      3.19606      0.08601      3.19606         1.027256     -0.044817      0.311294
C      4.25547      0.13007      4.25547        -0.551041     -0.176263     -0.423794
C      3.19606     10.40319      7.29314         0.452609      0.012705     -0.207794
C      4.25547     10.35913      6.23373        -0.229171     -0.003473      0.166332
C      3.19606      7.29314     10.40319         0.290606     -0.455948      0.034938
C      4.25547      6.23373     10.35913        -0.968427     -0.041072      0.088354
C      7.29314      7.29314      0.08601        -0.463754     -0.366737     -0.029012
C      6.23373      6.23373      0.13007         0.673966      0.184228      0.036195
C      3.19606      3.19606      0.08601         0.843692      0.426305     -0.020417
C      4.25547      4.25547      0.13007        -0.114126     -0.899060     -0.043772
C      7.29314      3.19606     10.40319        -0.411434      0.401890      0.024855
C      6.23373      4.25547     10.35913         0.376503     -0.737748      0.108650
O     10.43466      3.58206      8.50569         0.102609      0.228514      0.850736
O     10.54374     17.39634      8.50569         0.052612     -0.064020      0.326736
O     10.54374      3.58206     12.47271         0.018167      0.007277     -0.346718
O     10.43466     17.39634     12.47271        -0.037249     -0.128175     -0.392749
O      8.50569     10.43466      3.58206         0.502180     -0.032797      0.171117
O      8.50569     10.54374     17.39634         0.823163     -0.067280     -0.216946
O     12.47271     10.54374      3.58206        -0.851705      0.144744      0.193311
O     12.47271     10.43466     17.39634        -0.547103      0.019392     -0.201054
O      3.58206      8.50569     10.43466         0.185433      0.603124     -0.041276
O     17.39634      8.50569     10.54374        -0.150181      0.553604      0.038548
O      3.58206     12.47271     10.54374         0.085017     -0.481667      0.041659
O     17.39634     12.47271     10.43466        -0.168602     -0.521908     -0.043489
O      3.58206     10.43466      8.50569         0.125580     -0.019231      0.341257
O     17.39634     10.54374      8.50569        -0.011302      0.101634      0.353830
O      3.58206     10.54374     12.47271         0.031569      0.053847     -0.329841
O     17.39634     10.43466     12.47271        -0.148042     -0.030529     -0.368831
O     10.43466      8.50569      3.58206        -0.034239      0.599179      0.197723
O     10.54374      8.50569     17.39634        -0.078047      0.794799     -0.185050
O     10.54374     12.47271      3.58206         0.166797     -0.827607      0.206304
O     10.43466     12.47271     17.39634        -0.028095     -0.297862      0.022339
O      8.50569      3.58206     10.43466         0.594872      0.152203     -0.057880
O      8.50569     17.39634     10.54374         0.590270     -0.195619      0.006213
O     12.47271      3.58206     10.54374        -0.753944      0.095540      0.008850
O     12.47271     17.39634     10.43466        -0.532112     -0.140741     -0.036904
O     11.90042     11.90042     19.56718        -0.305013     -0.239108      0.254030
O     19.56718     19.56718     19.56718         0.310259      0.318832      0.228858
O     19.56718     11.90042     11.90042         0.348362     -0.269390     -0.257908
O     11.90042     19.56718     11.90042        -0.292545      0.358228     -0.241679
O      9.45224      1.03696      9.45224        -0.008069      0.117193     -0.118669
O      1.03696      9.45224      9.45224         0.063928     -0.000643     -0.120823
O      1.03696      1.03696      1.03696         0.056377      0.112558      0.087549
O      9.45224      9.45224      1.03696        -0.029369     -0.012762      0.095953
Zr     10.48920      2.52580     10.48920        -0.200995     -0.340226      0.224670
Zr     10.48920     18.45260     10.48920         0.045173      0.050147      0.091191
Zr     10.48920     10.48920      2.52580        -0.234366     -0.238960     -0.350322
Zr     10.48920     10.48920     18.45260         0.056278      0.000088      0.327324
Zr      2.52580     10.48920     10.48920        -0.126870     -0.163503     -0.002656
Zr     18.45260     10.48920     10.48920         0.065820     -0.060484      0.076941
Pd     12.34937      8.27228     10.04195         0.119732      0.078204     -0.028107
Pd      7.22043      9.45531     10.59543        -0.098449      0.082924     -0.087860
Pd      6.88009     11.71780     11.98451         0.015361     -0.020722     -0.061798
Pd     12.11945     13.67412      7.52858         0.051887      0.011378      0.011418
Pd     11.74053      7.89540      7.47797         0.018345      0.043833     -0.073523
Pd      8.78426      7.55134      7.10411        -0.159795     -0.052844     -0.019844
Pd     11.70884     11.67040      5.81985        -0.044201      0.029120     -0.036249
Pd     14.15877      8.95863      7.64646         0.020621     -0.001202      0.113430
Pd      9.74661     11.99235      7.88289         0.043731     -0.056710     -0.098548
Pd      7.10006      7.01869     12.05786         0.003807      0.010679     -0.039099
Pd      6.69112      7.63826      8.60820        -0.027220      0.105011     -0.008919
Pd      7.27515      9.18473     13.47245        -0.075744      0.003518      0.057544
Pd     11.40685      5.80560      9.30569        -0.027612      0.049218     -0.086921
Pd     10.10851      9.77764      6.44247        -0.058714     -0.051452     -0.048380
Pd      8.95566     14.06107      9.30599         0.088191     -0.056891     -0.006320
Pd     11.03414      6.72146     11.71499         0.073567      0.017268     -0.013008
Pd     10.08363      9.30476      9.20213        -0.017211     -0.040958     -0.158438
Pd      9.10956     11.45195     10.42096        -0.013732     -0.004685     -0.039440
Pd      9.08996      7.03987      9.80409        -0.086909     -0.024902      0.127916
Pd      8.80443      7.04245     14.04100         0.024426      0.089590     -0.000964
Pd      9.38020      8.76551     11.87366        -0.006439      0.109178     -0.064092
Pd     12.15565     10.68638      8.26901         0.020062      0.073538     -0.010174
Pd      6.91203     12.15241      9.20773         0.024298     -0.004455      0.085324
Pd      7.90930      9.97433      8.05499         0.027140     -0.004168     -0.023607
Pd     13.92015      6.57390      8.62562         0.010418     -0.072814     -0.008392
Pd     13.56797      7.60234     12.29828        -0.055887      0.046288     -0.045682
Pd      9.26353     11.16630     13.10176        -0.008224      0.070399      0.028808
Pd     14.04626     12.47104      8.73723         0.081961     -0.013816      0.037487
Pd     13.41548     10.28560     12.68249        -0.128700      0.038673     -0.044312
Pd     14.13539     10.14911     10.11479         0.017496     -0.000589      0.039693
Pd     11.40131     10.54441     11.18904         0.273384     -0.046993      0.102426
Pd     11.33084     13.01561      9.93793         0.050192     -0.024108     -0.011812
Pd     13.59377     12.52393     11.37259        -0.017862     -0.035803      0.000452
Pd     11.32265     12.84579     12.55975         0.051637      0.046159     -0.021464
Pd     11.54387     11.18651     14.56852        -0.058862     -0.019789     -0.021691
Pd     11.43916      8.73600     13.45281        -0.086437      0.026603     -0.058098
Pd      9.50825      9.49958     15.13768         0.041605      0.062603      0.025238
Pd      8.87814     13.59875     11.95524        -0.008525      0.032381      0.020409
