152
# total energy = -1022.85208571 eVH     10.35389      5.87395      7.64558         0.472529      0.021932      0.889449
H     10.62451     15.10445      7.64558        -0.039766      0.046655      0.761675
H     10.62451      5.87395     13.33282         0.143705      0.115969     -0.606591
H     10.35389     15.10445     13.33282        -0.243276     -0.083132     -0.550174
H      7.64558     10.35389      5.87395         0.329614     -0.035380      0.189224
H      7.64558     10.62451     15.10445         0.615626     -0.190615     -0.143645
H     13.33282     10.62451      5.87395        -0.844010     -0.327430      0.171046
H     13.33282     10.35389     15.10445        -0.443207     -0.076455     -0.069644
H      5.87395      7.64558     10.35389         0.131660      1.103259     -0.172660
H     15.10445      7.64558     10.62451        -0.170968      0.402361     -0.085677
H      5.87395     13.33282     10.62451         0.142889     -0.408110     -0.073100
H     15.10445     13.33282     10.35389        -0.076100     -0.967931     -0.197342
H      5.87395     10.35389      7.64558         0.128188      0.038874      0.484865
H     15.10445     10.62451      7.64558         0.108531     -0.204356      0.818044
H      5.87395     10.62451     13.33282         0.269837     -0.028696     -0.391936
H     15.10445     10.35389     13.33282        -0.158992      0.017219     -0.618175
H     10.35389      7.64558      5.87395         0.063705      0.886022      0.106047
H     10.62451      7.64558     15.10445         0.025839      0.552311     -0.143866
H     10.62451     13.33282      5.87395         0.057870     -0.594789      0.177632
H     10.35389     13.33282     15.10445        -0.248396     -0.902857     -0.114425
H      7.64558      5.87395     10.35389         0.527826      0.045087     -0.135459
H      7.64558     15.10445     10.62451         0.929134     -0.200683      0.301686
H     13.33282      5.87395     10.62451        -0.438210      0.186072     -0.059769
H     13.33282     15.10445     10.35389        -1.042394     -0.099374      0.271651
H     12.45634     12.45634     19.01126         0.266238      0.257088     -0.225180
H     19.01126     19.01126     19.01126        -0.247159     -0.235471     -0.262142
H     19.01126     12.45634     12.45634        -0.240103      0.271074      0.239632
H     12.45634     19.01126     12.45634         0.210318     -0.283225      0.253073
C     10.35284      5.61067      6.59456        -0.105434     -0.450605     -0.391418
C     10.62556     15.36773      6.59456         0.017394      0.358467     -1.139966
C     10.62556      5.61067     14.38384        -0.030524     -0.219406      0.727080
C     10.35284     15.36773     14.38384         0.173348      0.771644      0.152018
C      6.59456     10.35284      5.61067        -0.408075     -0.041087     -0.178199
C      6.59456     10.62556     15.36773        -0.780688      0.150203      0.346614
C     14.38384     10.62556      5.61067         0.596869      0.293879     -0.365802
C     14.38384     10.35284     15.36773         0.712346     -0.118843      0.427319
C      5.61067      6.59456     10.35284        -0.425021     -0.729566      0.281346
C     15.36773      6.59456     10.62556         0.198726     -0.459314      0.048271
C      5.61067     14.38384     10.62556        -0.261439      0.381225     -0.025097
C     15.36773     14.38384     10.35284         0.407238      0.169018      0.203105
C      5.61067     10.35284      6.59456        -0.311428     -0.017867     -0.895824
C     15.36773     10.62556      6.59456         0.579212     -0.163056     -1.232233
C      5.61067     10.62556     14.38384        -0.456556      0.007485      0.905319
C     15.36773     10.35284     14.38384         0.517220     -0.183314      1.253897
C     10.35284      6.59456      5.61067        -0.031732     -0.958418     -0.668851
C     10.62556      6.59456     15.36773         0.043918     -0.655765      0.291486
C     10.62556     14.38384      5.61067         0.047539      1.241852     -0.699823
C     10.35284     14.38384     15.36773         0.108912      0.624462      0.638240
C      6.59456      5.61067     10.35284        -0.215720     -0.886212      0.131979
C      6.59456     15.36773     10.62556        -1.730359      0.492479      0.035284
C     14.38384      5.61067     10.62556         0.585245     -0.229216     -0.008135
C     14.38384     15.36773     10.35284         0.213957      0.546256     -0.243307
C     10.40319      3.19606      7.29314         0.014463      0.892447     -0.252232
C     10.35913      4.25547      6.23373        -0.057874     -0.366316      0.607312
C      0.08601      7.29314      7.29314        -0.009038     -0.239438     -0.465972
C      0.13007      6.23373      6.23373        -0.000724      0.118540      0.204013
C      0.08601      3.19606      3.19606        -0.017118      0.647504      0.186154
C      0.13007      4.25547      4.25547        -0.088855     -0.199283     -0.168303
C     10.40319      7.29314      3.19606        -0.003194     -0.690097      0.522206
C     10.35913      6.23373      4.25547        -0.014649      0.497032     -0.416767
C      7.29314     10.40319      3.19606        -0.339052      0.023104      0.882181
C      6.23373     10.35913      4.25547         0.212708      0.011597     -0.146715
C      7.29314      0.08601      7.29314        -0.307194     -0.046069     -0.279647
C      6.23373      0.13007      6.23373         0.268748     -0.057463      0.292767
C      3.19606      0.08601      3.19606         0.436365     -0.051395      1.319804
C      4.25547      0.13007      4.25547        -0.118734     -0.025128     -0.463156
C      3.19606     10.40319      7.29314         0.692904      0.014223     -0.265493
C      4.25547     10.35913      6.23373        -0.133192      0.028506      0.101948
C      3.19606      7.29314     10.40319         0.604577     -1.266653      0.025107
C      4.25547      6.23373     10.35913        -0.723457      0.834064      0.049920
C      7.29314      7.29314      0.08601        -0.643971     -0.173773     -0.022188
C      6.23373      6.23373      0.13007         0.170675      0.273136     -0.008590
C      3.19606      3.19606      0.08601         0.240364      0.251432     -0.019709
C      4.25547      4.25547      0.13007        -0.056095     -0.038066      0.013204
C      7.29314      3.19606     10.40319        -0.370604      0.805115      0.016642
C      6.23373      4.25547     10.35913         0.869336     -0.169639      0.012343
O     10.43466      3.58206      8.50569        -0.049812      0.037418      0.324875
O     10.54374     17.39634      8.50569        -0.022755     -0.180325      0.600474
O     10.54374      3.58206     12.47271         0.054604      0.061025     -0.325848
O     10.43466     17.39634     12.47271        -0.023521     -0.126410     -0.582113
O      8.50569     10.43466      3.58206         0.373629     -0.025460     -0.018631
O      8.50569     10.54374     17.39634         0.469738      0.052916     -0.142065
O     12.47271     10.54374      3.58206        -0.281786      0.049768     -0.081225
O     12.47271     10.43466     17.39634        -0.847616      0.019505     -0.225581
O      3.58206      8.50569     10.43466         0.040959      0.916597      0.040131
O     17.39634      8.50569     10.54374        -0.042796      0.342969      0.078147
O      3.58206     12.47271     10.54374         0.063848     -0.419046      0.064069
O     17.39634     12.47271     10.43466        -0.170299     -0.782681      0.020417
O      3.58206     10.43466      8.50569        -0.052751     -0.065202      0.228642
O     17.39634     10.54374      8.50569        -0.136845      0.043964      0.464453
O      3.58206     10.54374     12.47271        -0.031028     -0.049092     -0.895988
O     17.39634     10.43466     12.47271        -0.198248      0.046794     -0.775003
O     10.43466      8.50569      3.58206         0.044617      0.676777      0.190471
O     10.54374      8.50569     17.39634         0.052966      0.438552     -0.081324
O     10.54374     12.47271      3.58206        -0.008007     -0.733475      0.225392
O     10.43466     12.47271     17.39634         0.046683     -0.842378     -0.271883
O      8.50569      3.58206     10.43466         0.487470      0.073520     -0.038505
O      8.50569     17.39634     10.54374         0.644935     -0.248631     -0.058546
O     12.47271      3.58206     10.54374        -0.484479      0.164166      0.039841
O     12.47271     17.39634     10.43466        -0.527501     -0.037162     -0.029644
O     11.90042     11.90042     19.56718        -0.304371     -0.312119      0.265706
O     19.56718     19.56718     19.56718         0.286116      0.273273      0.321574
O     19.56718     11.90042     11.90042         0.277144     -0.330725     -0.244057
O     11.90042     19.56718     11.90042        -0.227839      0.291104     -0.240304
O      9.45224      1.03696      9.45224        -0.075145      0.048275     -0.066308
O      1.03696      9.45224      9.45224         0.054690     -0.143615     -0.057808
O      1.03696      1.03696      1.03696         0.042703      0.033682      0.188362
O      9.45224      9.45224      1.03696        -0.041804     -0.090568      0.124130
Zr     10.48920      2.52580     10.48920        -0.005122     -0.074315     -0.024961
Zr     10.48920     18.45260     10.48920         0.054545      0.300700     -0.076565
Zr     10.48920     10.48920      2.52580        -0.098110      0.013289     -0.371451
Zr     10.48920     10.48920     18.45260        -0.131048     -0.153686      0.325481
Zr      2.52580     10.48920     10.48920        -0.353475      0.316219     -0.472304
Zr     18.45260     10.48920     10.48920         0.249004      0.030825     -0.272060
Pd      9.03833     10.25585     13.32346        -0.010694     -0.009844      0.006232
Pd     10.57107      9.71987     10.96739         0.013012     -0.002363     -0.033869
Pd     13.77173      8.53002     12.69983         0.003417      0.002068     -0.017010
Pd     11.00295     11.07611     15.00618         0.001072     -0.018422      0.000597
Pd     12.85738     11.16918     12.99569         0.008467      0.005908      0.013694
Pd     14.99967     10.93343     11.34734         0.004933      0.019331     -0.012744
Pd      6.65084      7.43337     12.34467        -0.004682      0.023791      0.000662
Pd      9.23053      7.26347     10.11704         0.013325      0.009471     -0.038362
Pd      9.26765      7.60472     12.79151         0.001251     -0.014896     -0.010953
Pd     11.70329      7.28854     11.46876        -0.001261      0.000508     -0.021619
Pd     11.41297      7.99191      8.86605         0.030147      0.003107     -0.009445
Pd      7.25685     11.83499     11.95805         0.002635     -0.007437     -0.017981
Pd      8.88273     14.66646      9.32110         0.044536     -0.002518      0.011934
Pd      8.42154     12.65243     14.32033        -0.005880     -0.007797      0.003798
Pd     13.49120     14.09896      8.57589         0.079592      0.022188     -0.034592
Pd     10.95995     13.32035      8.50368         0.060504      0.027906      0.029306
Pd     14.10569     11.53184      8.93618         0.000267      0.021178     -0.015074
Pd      8.61743     14.10502     12.09949         0.009937     -0.001156      0.004304
Pd     12.24387     13.70738     14.03069        -0.007579      0.000721      0.004794
Pd     11.14440     14.43411     11.13106         0.031003     -0.009134      0.036703
Pd     14.04791     13.55034     12.16608        -0.010365      0.019478     -0.001189
Pd     12.29965     12.15320     10.66105         0.008135     -0.021105      0.006912
Pd     12.68363     12.34212      6.71521         0.023272      0.035127     -0.007401
Pd     13.68312      8.93881      7.94942         0.034360     -0.002985     -0.001608
Pd      6.87051      8.46869      8.84492         0.014062      0.017006     -0.002124
Pd      5.52057      9.93875     11.26940         0.031630      0.019964     -0.059527
Pd      9.16009      9.76184      8.32426         0.023815     -0.034718     -0.008559
Pd      8.83820      7.26781      7.45111        -0.032365     -0.014413     -0.026173
Pd      9.51531     12.08028     10.41965         0.018232      0.009400     -0.006381
Pd     11.56150     10.70335      8.55805         0.017271      0.010890     -0.022622
Pd     11.25793      9.21873      6.44260         0.041131     -0.020346     -0.009099
Pd      9.92329     11.54131      6.37628         0.037003     -0.023295     -0.011555
Ir     11.35131      9.10660     13.34848        -0.005441      0.008979     -0.017350
Ir     13.07402      9.49420     10.41302         0.014795      0.002992     -0.015561
Ir     10.53072     12.35676     12.69878         0.010727     -0.020125      0.029778
Ir      7.13504     10.98649      9.50745         0.023435     -0.033059      0.018700
Ir      8.40351     12.44367      8.17111         0.054603      0.043654     -0.031838
Ir      8.05655      9.29254     11.11375        -0.009863      0.020404     -0.017144
