152
# total energy = -1004.71652850 eVH     10.35389      5.87395      7.64558        -0.018365      0.066994      0.670762
H     10.62451     15.10445      7.64558        -0.104235     -0.168774      0.542239
H     10.62451      5.87395     13.33282         0.428204      0.020541     -0.861902
H     10.35389     15.10445     13.33282         0.044036     -0.163975     -0.485827
H      7.64558     10.35389      5.87395         0.352006      0.029779      0.160460
H      7.64558     10.62451     15.10445         0.928424      0.584719      0.010119
H     13.33282     10.62451      5.87395        -0.551031      0.299212      0.049510
H     13.33282     10.35389     15.10445        -0.907028     -0.251715      0.084702
H      5.87395      7.64558     10.35389         0.288174      1.526454      0.208387
H     15.10445      7.64558     10.62451        -0.104612      0.543567      0.243833
H      5.87395     13.33282     10.62451         0.194103     -0.587671     -0.010467
H     15.10445     13.33282     10.35389         0.045618     -1.135115     -0.380752
H      5.87395     10.35389      7.64558         0.173747      0.034353      0.467959
H     15.10445     10.62451      7.64558        -0.154579      0.624695      0.913952
H      5.87395     10.62451     13.33282        -0.018762      0.566110     -1.248914
H     15.10445     10.35389     13.33282         0.020153     -0.175272     -0.753425
H     10.35389      7.64558      5.87395         0.086912      1.421078      0.054538
H     10.62451      7.64558     15.10445         0.533543      0.734964     -0.109670
H     10.62451     13.33282      5.87395        -0.366035     -0.709910      0.313391
H     10.35389     13.33282     15.10445        -0.190302     -0.486947     -0.322208
H      7.64558      5.87395     10.35389         1.038902     -0.077002     -0.167503
H      7.64558     15.10445     10.62451         0.816957     -0.189987     -0.062301
H     13.33282      5.87395     10.62451        -0.585177      0.149904      0.565284
H     13.33282     15.10445     10.35389        -0.495622     -0.065456     -0.206263
H     12.45634     12.45634     19.01126         0.261267      0.267000     -0.228231
H     19.01126     19.01126     19.01126        -0.274173     -0.259668     -0.223684
H     19.01126     12.45634     12.45634        -0.276370      0.258912      0.223264
H     12.45634     19.01126     12.45634         0.237805     -0.271872      0.259240
C     10.35284      5.61067      6.59456        -0.246577     -0.818836     -0.128516
C     10.62556     15.36773      6.59456         0.029120      0.215598     -0.375485
C     10.62556      5.61067     14.38384        -0.050407     -0.413763      0.566973
C     10.35284     15.36773     14.38384         0.000216      0.294975      0.489807
C      6.59456     10.35284      5.61067        -0.400337      0.025965     -0.228626
C      6.59456     10.62556     15.36773        -0.946195      0.162041      0.697206
C     14.38384     10.62556      5.61067         0.376682     -0.256218     -0.789326
C     14.38384     10.35284     15.36773         1.041888     -0.088996      0.287889
C      5.61067      6.59456     10.35284        -0.798378     -0.522346     -0.362513
C     15.36773      6.59456     10.62556         0.670724     -0.103671     -0.274583
C      5.61067     14.38384     10.62556        -0.210419      0.661194     -0.001354
C     15.36773     14.38384     10.35284         0.315694      1.078118      0.087100
C      5.61067     10.35284      6.59456        -0.263242      0.011587     -0.726081
C     15.36773     10.62556      6.59456         0.555390     -0.171753     -0.100713
C      5.61067     10.62556     14.38384        -0.619066     -0.017873      0.853522
C     15.36773     10.35284     14.38384         0.503176     -0.085366      1.027711
C     10.35284      6.59456      5.61067        -0.039985     -0.893055     -0.462494
C     10.62556      6.59456     15.36773         0.134953     -0.702922      0.503640
C     10.62556     14.38384      5.61067         0.087008      1.188694     -0.316218
C     10.35284     14.38384     15.36773        -0.032462      1.013437      0.515667
C      6.59456      5.61067     10.35284        -0.175453     -1.210560      0.197488
C      6.59456     15.36773     10.62556        -0.967266      0.158827      0.129146
C     14.38384      5.61067     10.62556        -0.078848     -0.454075     -0.358608
C     14.38384     15.36773     10.35284         0.201469      0.518669     -0.055432
C     10.40319      3.19606      7.29314         0.019653      1.009877     -0.474307
C     10.35913      4.25547      6.23373         0.073979     -0.621152      0.107308
C      0.08601      7.29314      7.29314        -0.031537     -0.907540     -0.179552
C      0.13007      6.23373      6.23373        -0.084240      0.263167      0.324791
C      0.08601      3.19606      3.19606         0.037575      1.297389      0.162220
C      0.13007      4.25547      4.25547        -0.034866     -0.396192     -0.317591
C     10.40319      7.29314      3.19606         0.004289     -0.463438      0.299137
C     10.35913      6.23373      4.25547         0.006678      0.093734     -0.848824
C      7.29314     10.40319      3.19606        -0.264897      0.018608      0.566937
C      6.23373     10.35913      4.25547         0.187633      0.083922     -0.106902
C      7.29314      0.08601      7.29314        -1.087357     -0.092776     -0.322929
C      6.23373      0.13007      6.23373         0.778384     -0.226426      0.393615
C      3.19606      0.08601      3.19606         1.074881     -0.029121      0.535622
C      4.25547      0.13007      4.25547        -0.644623     -0.187845     -0.504636
C      3.19606     10.40319      7.29314         0.598324      0.013761     -0.503961
C      4.25547     10.35913      6.23373        -0.263803      0.111071      0.229064
C      3.19606      7.29314     10.40319         0.346870     -1.088103      0.033154
C      4.25547      6.23373     10.35913        -1.126118      0.084838      0.155814
C      7.29314      7.29314      0.08601        -0.465896     -0.504372     -0.013590
C      6.23373      6.23373      0.13007         0.476772      0.333426      0.034892
C      3.19606      3.19606      0.08601         0.479322      0.402569     -0.031657
C      4.25547      4.25547      0.13007        -0.072570     -0.665248     -0.087393
C      7.29314      3.19606     10.40319        -0.397888      0.506484      0.063485
C      6.23373      4.25547     10.35913         0.423879     -0.762095      0.205546
O     10.43466      3.58206      8.50569        -0.027755      0.027028      0.437764
O     10.54374     17.39634      8.50569         0.062847     -0.044544      0.260707
O     10.54374      3.58206     12.47271         0.008668     -0.087930     -0.108752
O     10.43466     17.39634     12.47271        -0.036495     -0.144772     -0.524408
O      8.50569     10.43466      3.58206         0.320272     -0.020172      0.027486
O      8.50569     10.54374     17.39634         0.884969     -0.067530     -0.173785
O     12.47271     10.54374      3.58206        -0.854238      0.104911      0.080783
O     12.47271     10.43466     17.39634        -0.573141      0.026502     -0.118969
O      3.58206      8.50569     10.43466         0.179148      1.006145     -0.019107
O     17.39634      8.50569     10.54374        -0.150630      0.670289      0.050987
O      3.58206     12.47271     10.54374         0.104353     -0.524994      0.046082
O     17.39634     12.47271     10.43466        -0.158444     -0.606635     -0.029957
O      3.58206     10.43466      8.50569         0.066908     -0.073320      0.506701
O     17.39634     10.54374      8.50569         0.027841      0.101576      0.382273
O      3.58206     10.54374     12.47271         0.005553      0.034934     -0.454155
O     17.39634     10.43466     12.47271        -0.223908     -0.033130     -0.690779
O     10.43466      8.50569      3.58206        -0.043655      0.559307      0.153863
O     10.54374      8.50569     17.39634        -0.075688      0.741948     -0.214537
O     10.54374     12.47271      3.58206         0.071120     -0.962809      0.189751
O     10.43466     12.47271     17.39634         0.086853     -0.863567     -0.226495
O      8.50569      3.58206     10.43466         0.570445      0.141247     -0.055352
O      8.50569     17.39634     10.54374         0.544628     -0.149923     -0.001113
O     12.47271      3.58206     10.54374        -0.658615      0.154409      0.025739
O     12.47271     17.39634     10.43466        -0.359615      0.005752     -0.043184
O     11.90042     11.90042     19.56718        -0.302988     -0.305747      0.227992
O     19.56718     19.56718     19.56718         0.314288      0.305105      0.217151
O     19.56718     11.90042     11.90042         0.322166     -0.268106     -0.233210
O     11.90042     19.56718     11.90042        -0.256043      0.328345     -0.298151
O      9.45224      1.03696      9.45224        -0.013423      0.069483     -0.145635
O      1.03696      9.45224      9.45224         0.064721     -0.051799     -0.164471
O      1.03696      1.03696      1.03696         0.079512      0.127240      0.063833
O      9.45224      9.45224      1.03696        -0.073381     -0.067958      0.043842
Zr     10.48920      2.52580     10.48920        -0.038976     -0.192271      0.002302
Zr     10.48920     18.45260     10.48920        -0.043153      0.107486      0.209082
Zr     10.48920     10.48920      2.52580        -0.173036     -0.436193     -0.270766
Zr     10.48920     10.48920     18.45260         0.023358      0.023272      0.481693
Zr      2.52580     10.48920     10.48920        -0.246570      0.191497      0.137160
Zr     18.45260     10.48920     10.48920         0.180063     -0.009819     -0.046092
Pd     13.26854      8.63302      9.55896         0.079614      0.046548     -0.063235
Pd      5.92963      9.71154     10.12195         0.036561      0.010277     -0.057161
Pd      6.89597     11.56618     11.73124         0.067489     -0.034145      0.026867
Pd     12.21268     13.13497      7.45690         0.018786     -0.017421     -0.084502
Pd     12.13053      7.69117      6.95114         0.029851      0.008982      0.033897
Pd      8.42444      7.16378      6.84084        -0.017056     -0.005175     -0.053172
Pd     11.16939     11.39009      5.63110        -0.033847     -0.056069     -0.087830
Pd     14.56555      8.62559      7.12626         0.000169      0.070677      0.057426
Pd      9.89991     11.68675      8.11081         0.029591      0.122472     -0.045751
Pd      6.92572      6.93665     12.16156        -0.053640      0.001419     -0.015595
Pd      6.35514      7.50411      8.39443         0.013944      0.020664      0.011558
Pd      7.15013      9.08682     13.63542         0.002665     -0.020948      0.068308
Pd     11.53619      6.50240      9.24012         0.022498     -0.011844      0.027213
Pd      9.93829      9.39179      6.76043         0.010086     -0.012915      0.037470
Pd      9.10620     13.92969      9.38955        -0.093805      0.047047      0.034487
Pd     10.71294      7.44973     11.47590        -0.083770     -0.069748      0.031196
Pd     10.56199      9.13384      9.40732         0.006336     -0.062585      0.002122
Pd      9.43839     11.43149     10.71480         0.037750     -0.056803     -0.043635
Pd      8.93097      7.07040      9.45986        -0.001809     -0.057924     -0.138509
Pd      9.11658      7.35946     13.50949        -0.053789      0.025972      0.043911
Pd      8.36701      9.05842     11.26818        -0.006668     -0.059368      0.099178
Pd     12.30150     10.33988      7.76875        -0.059431      0.017995     -0.037014
Pd      7.28124     12.00383      9.14324         0.016954     -0.045828      0.040935
Pd      8.06910      9.55636      8.59258        -0.024412      0.032282     -0.100274
Pd     14.07917      6.34227      8.45351         0.041787      0.030937     -0.025628
Pd     13.01183      8.52035     12.19324        -0.100017      0.036553     -0.112792
Pd      8.85648     11.47003     13.44283         0.045418      0.016829      0.043709
Pd     13.84684     11.96986      9.13006         0.041240      0.013136     -0.014854
Pd     13.08976     11.08364     13.22690         0.005389     -0.058626      0.011719
Pd     14.76073     10.36475     11.05548        -0.046836      0.043652      0.117837
Pd     12.08681     10.76280     10.75378        -0.056406     -0.036392     -0.002434
Pd     11.50664     13.23448      9.96788         0.003160      0.023242     -0.027161
Pd     13.62246     13.09835     11.66016        -0.033122     -0.016957     -0.053792
Pd     11.08147     12.73863     12.52522         0.056850     -0.013340     -0.052236
Pd     11.11561     11.48879     14.95633        -0.039674      0.034919      0.000765
Pd     10.72738      9.75086     12.82118        -0.060013     -0.104897     -0.053646
Pd      9.42524      9.44888     15.18195         0.047477      0.012073      0.022657
Pd      8.65711     13.73011     12.02258         0.017031     -0.139070      0.028753
