152
# total energy = -1110.35963188 eVH     10.35389      5.87395      7.64558        -0.340761     -0.161512      1.026094
H     10.62451     15.10445      7.64558         0.383799      0.091286      0.944536
H     10.62451      5.87395     13.33282        -0.304110     -0.720330     -1.417534
H     10.35389     15.10445     13.33282        -0.641547      0.373149     -0.319737
H      7.64558     10.35389      5.87395         0.544612     -0.542647     -0.081207
H      7.64558     10.62451     15.10445         0.354044     -0.242303      0.039000
H     13.33282     10.62451      5.87395        -0.520060      0.608140     -0.013410
H     13.33282     10.35389     15.10445        -0.532873      0.417947      0.163806
H      5.87395      7.64558     10.35389         0.140166      0.491496      0.034626
H     15.10445      7.64558     10.62451         0.429729      0.840025      0.249597
H      5.87395     13.33282     10.62451        -0.230671     -0.440408      0.364492
H     15.10445     13.33282     10.35389         0.031289     -0.310940     -0.391877
H      5.87395     10.35389      7.64558        -0.071399     -0.349253      1.445299
H     15.10445     10.62451      7.64558         0.199207      0.402353      1.250415
H      5.87395     10.62451     13.33282        -0.141491     -0.334764     -1.120005
H     15.10445     10.35389     13.33282         0.534054      0.879159     -1.515316
H     10.35389      7.64558      5.87395        -0.529326      0.494986     -0.198773
H     10.62451      7.64558     15.10445        -0.135415      0.554888      0.201751
H     10.62451     13.33282      5.87395         0.909440     -1.409300     -0.332577
H     10.35389     13.33282     15.10445         0.291204     -0.545129     -0.070257
H      7.64558      5.87395     10.35389         0.725186      0.174075     -0.139181
H      7.64558     15.10445     10.62451         1.969974      0.825148      0.183722
H     13.33282      5.87395     10.62451        -2.692066     -1.000691     -0.413934
H     13.33282     15.10445     10.35389        -0.869627     -0.040372     -0.253886
H     12.45634     12.45634     19.01126         0.271747      0.258170     -0.227391
H     19.01126     19.01126     19.01126        -0.266797     -0.254216     -0.237888
H     19.01126     12.45634     12.45634        -0.282782      0.281506      0.187145
H     12.45634     19.01126     12.45634         0.256025     -0.251598      0.235947
C     10.35284      5.61067      6.59456         0.100589     -0.498059     -1.257944
C     10.62556     15.36773      6.59456         0.163244      0.771103     -0.858090
C     10.62556      5.61067     14.38384         0.170075     -0.324567      1.823412
C     10.35284     15.36773     14.38384         0.122719      0.401910      1.812417
C      6.59456     10.35284      5.61067        -1.117454     -0.111099     -0.844842
C      6.59456     10.62556     15.36773        -0.674783     -0.107738      0.727661
C     14.38384     10.62556      5.61067         0.889125     -0.115133     -0.998958
C     14.38384     10.35284     15.36773         1.207644      0.164933      1.104917
C      5.61067      6.59456     10.35284        -0.691622     -0.795284     -0.160429
C     15.36773      6.59456     10.62556         1.941318     -0.186626     -0.176037
C      5.61067     14.38384     10.62556        -1.574517     -0.004165     -0.110715
C     15.36773     14.38384     10.35284         0.486804      0.047289      0.032911
C      5.61067     10.35284      6.59456        -0.270755      0.207558     -1.366213
C     15.36773     10.62556      6.59456         0.272548     -0.191960     -0.999779
C      5.61067     10.62556     14.38384        -0.281807      0.376342      1.411421
C     15.36773     10.35284     14.38384         0.074103     -0.428310      1.904646
C     10.35284      6.59456      5.61067        -0.203362     -0.930235     -0.694414
C     10.62556      6.59456     15.36773        -0.095806     -0.818019      1.043262
C     10.62556     14.38384      5.61067        -0.483368      2.055826     -0.783663
C     10.35284     14.38384     15.36773        -0.297940      1.483980      0.465705
C      6.59456      5.61067     10.35284        -0.959210     -0.411883      0.076090
C      6.59456     15.36773     10.62556        -1.350389      0.340830     -0.335246
C     14.38384      5.61067     10.62556         1.303553     -1.121743      0.146201
C     14.38384     15.36773     10.35284         0.400087      0.317431      0.055125
C     10.40319      3.19606      7.29314         0.003247      0.312570     -0.096883
C     10.35913      4.25547      6.23373         0.136558     -0.503271      0.031964
C      0.08601      7.29314      7.29314        -0.054311     -0.309865     -0.431823
C      0.13007      6.23373      6.23373        -0.127374      0.727322      0.046778
C      0.08601      3.19606      3.19606        -0.110609      1.623822      0.174343
C      0.13007      4.25547      4.25547        -0.088043     -0.410208     -1.252411
C     10.40319      7.29314      3.19606         0.016867     -0.421893      0.131966
C     10.35913      6.23373      4.25547         0.259753      0.077725     -0.483284
C      7.29314     10.40319      3.19606        -1.663852      0.005310      0.327280
C      6.23373     10.35913      4.25547         0.653090      0.078663     -0.611938
C      7.29314      0.08601      7.29314        -0.396964     -0.008657     -0.294084
C      6.23373      0.13007      6.23373         0.619235     -0.052365      0.276582
C      3.19606      0.08601      3.19606         0.662201     -0.014720      0.190528
C      4.25547      0.13007      4.25547        -0.375632     -0.059710     -0.483178
C      3.19606     10.40319      7.29314         0.383306      0.018569     -0.321102
C      4.25547     10.35913      6.23373        -0.729582      0.058257      0.377233
C      3.19606      7.29314     10.40319         0.307153     -0.220233     -0.005812
C      4.25547      6.23373     10.35913         0.055834      0.649288      0.094321
C      7.29314      7.29314      0.08601        -0.719623     -0.592748     -0.014968
C      6.23373      6.23373      0.13007         0.794292      1.152534     -0.078805
C      3.19606      3.19606      0.08601         0.805406      0.486012      0.014006
C      4.25547      4.25547      0.13007        -0.330912     -1.701561     -0.116584
C      7.29314      3.19606     10.40319        -0.333918      0.279857     -0.003114
C      6.23373      4.25547     10.35913         0.522565     -0.038766      0.229079
O     10.43466      3.58206      8.50569        -0.047174      0.180550      0.257871
O     10.54374     17.39634      8.50569         0.041068     -0.230743      0.485378
O     10.54374      3.58206     12.47271         0.086104     -0.056296     -0.043898
O     10.43466     17.39634     12.47271        -0.023056     -0.139320     -0.281585
O      8.50569     10.43466      3.58206         0.984240      0.181817      0.390611
O      8.50569     10.54374     17.39634         0.564299      0.083839     -0.226251
O     12.47271     10.54374      3.58206        -0.431032     -0.037534      0.189678
O     12.47271     10.43466     17.39634        -0.527678     -0.070734     -0.201006
O      3.58206      8.50569     10.43466         0.178135      0.442463     -0.031228
O     17.39634      8.50569     10.54374        -0.227574      0.715242      0.041608
O      3.58206     12.47271     10.54374         0.158407     -0.662789      0.024027
O     17.39634     12.47271     10.43466        -0.185427     -0.485008     -0.013412
O      3.58206     10.43466      8.50569         0.219837     -0.058509      0.400157
O     17.39634     10.54374      8.50569        -0.169068      0.036944      0.409406
O      3.58206     10.54374     12.47271         0.142471      0.021204     -0.309019
O     17.39634     10.43466     12.47271         0.066421     -0.050104     -0.089463
O     10.43466      8.50569      3.58206        -0.002540      0.277357      0.177587
O     10.54374      8.50569     17.39634         0.071170      0.441454     -0.183869
O     10.54374     12.47271      3.58206        -0.222949     -0.965319      0.348105
O     10.43466     12.47271     17.39634        -0.085375     -0.448316     -0.244425
O      8.50569      3.58206     10.43466         0.499570      0.195340     -0.013542
O      8.50569     17.39634     10.54374         0.656218     -0.191968      0.023206
O     12.47271      3.58206     10.54374        -0.734219      0.277935      0.036803
O     12.47271     17.39634     10.43466        -0.445045     -0.198030     -0.044423
O     11.90042     11.90042     19.56718        -0.344837     -0.307062      0.258528
O     19.56718     19.56718     19.56718         0.326074      0.310917      0.281211
O     19.56718     11.90042     11.90042         0.278766     -0.278424     -0.141181
O     11.90042     19.56718     11.90042        -0.307540      0.289070     -0.233942
O      9.45224      1.03696      9.45224        -0.056542      0.070896     -0.048958
O      1.03696      9.45224      9.45224         0.035129     -0.071922     -0.073689
O      1.03696      1.03696      1.03696         0.056675      0.137982      0.105806
O      9.45224      9.45224      1.03696        -0.130219     -0.087882      0.105423
Zr     10.48920      2.52580     10.48920         0.141136     -0.162243     -0.160524
Zr     10.48920     18.45260     10.48920        -0.090916      0.178831     -0.039665
Zr     10.48920     10.48920      2.52580         0.326105     -0.310624     -0.197748
Zr     10.48920     10.48920     18.45260         0.001212     -0.082752      0.211313
Zr      2.52580     10.48920     10.48920        -0.063671      0.161211     -0.050056
Zr     18.45260     10.48920     10.48920         0.134515     -0.120549     -0.246412
Ir     12.06122     12.49149     10.46428        -0.004861     -0.007492     -0.001316
Ir     11.14189      7.41762     10.33498         0.040421     -0.000852     -0.015212
Ir      8.78959      7.40409     11.59561         0.032731     -0.024435     -0.017812
Ir      7.48425     11.66943      7.65011         0.003843     -0.009249      0.008658
Ir     11.59621     12.09773      7.12587         0.000501      0.002871      0.005430
Ir     13.72950      8.97005      7.57084         0.017083      0.015473     -0.014049
Ir     12.50971     13.95327      8.42221        -0.013916     -0.003993      0.000701
Ir      9.71512     11.26857      5.57207        -0.004144      0.004282     -0.000578
Ir      9.08762     13.47349      7.07427        -0.003141      0.006652      0.003294
Ir      9.29355      9.66316      7.54135        -0.012376     -0.001151     -0.010944
Ir     13.24475      7.04545     11.94843         0.017571     -0.008593      0.015056
Ir     13.52447      7.02165      9.12392         0.045657      0.009613     -0.002342
Ir     11.00499      7.61189     12.87354         0.024106     -0.005083     -0.015065
Ir     13.61771     11.55560      8.75891        -0.005303      0.004489     -0.004676
Ir     11.50597      9.66693      6.24111        -0.004530     -0.012053     -0.003764
Ir      7.13797      9.21572      8.95157         0.001335     -0.028773     -0.009080
Ir     14.05595     11.41454     11.66861         0.008511      0.009135     -0.008919
Ir     11.64772      9.87929      8.91173         0.003620     -0.008267     -0.015437
Ir      9.41974      9.54110     10.26067         0.009497     -0.010261     -0.009073
Ir     13.85057      9.38737     10.19507         0.004677      0.010537     -0.005258
Ir     13.79871      9.14957     12.92513        -0.000016      0.001240     -0.017157
Ir     11.67801      9.76615     11.58256         0.002655      0.001652     -0.012806
Ir      9.91296     11.76903      8.98223        -0.002306     -0.012610     -0.004250
Ir      9.01143      7.44625      8.86480         0.041810     -0.016117     -0.028759
Ir     11.47694      7.60560      7.80697         0.055548     -0.023808     -0.023495
Ir      9.23787      9.51868     13.02600         0.010733     -0.016293     -0.006066
Ir      7.53459     13.93675      8.98692        -0.007430     -0.013784      0.008372
Ir     10.91736     14.13853     11.94266        -0.015732     -0.022255      0.007695
Ir     10.13136     14.18553      9.52036        -0.002270     -0.015366      0.005054
Ir      9.80390     11.71952     11.72876        -0.002468     -0.017490     -0.001885
Ir      7.59026     11.61784     10.20868        -0.004794     -0.024286      0.008586
Ir      8.38403     13.78452     11.58470        -0.015506     -0.016312      0.004047
Ir      7.52971     11.62613     12.83116        -0.003028     -0.031922      0.002171
Ir      9.76197     11.65129     14.34551         0.005608     -0.012940     -0.003811
Ir     13.50973     13.87440     12.19556        -0.012066      0.001697     -0.003657
Ir     11.99613     12.06758     13.09062         0.002525     -0.012795     -0.010035
Ir     11.56327      9.83081     14.21746         0.001992     -0.011536     -0.003889
Ir      7.13053      9.43087     11.51071         0.009735     -0.034024     -0.003141
