152
# total energy = -1061.20480523 eVH     10.35389      5.87395      7.64558        -0.401957      0.169387      1.147985
H     10.62451     15.10445      7.64558         0.111802     -0.074953      0.811999
H     10.62451      5.87395     13.33282        -0.200168      0.068796     -0.548687
H     10.35389     15.10445     13.33282         0.006191     -0.293508     -0.485847
H      7.64558     10.35389      5.87395         0.740355      0.043892      0.212299
H      7.64558     10.62451     15.10445         0.189047     -0.004631     -0.058633
H     13.33282     10.62451      5.87395        -0.634306     -0.056490      0.153543
H     13.33282     10.35389     15.10445        -0.324010     -0.078092     -0.063062
H      5.87395      7.64558     10.35389         0.127622      0.360833     -0.027395
H     15.10445      7.64558     10.62451        -0.121921      0.723136      0.339009
H      5.87395     13.33282     10.62451         0.131168     -0.550323     -0.012207
H     15.10445     13.33282     10.35389        -0.234232     -0.497421      0.138651
H      5.87395     10.35389      7.64558         0.235474      0.161743      0.372976
H     15.10445     10.62451      7.64558        -0.182261     -0.085864      0.355687
H      5.87395     10.62451     13.33282         0.020931      0.157231     -0.734207
H     15.10445     10.35389     13.33282         0.065527     -0.261853     -0.685765
H     10.35389      7.64558      5.87395        -0.094876      0.449569      0.273621
H     10.62451      7.64558     15.10445         0.432122      0.797085     -0.102908
H     10.62451     13.33282      5.87395         0.337500     -0.569953      0.126061
H     10.35389     13.33282     15.10445         0.139653     -0.568230     -0.101436
H      7.64558      5.87395     10.35389         0.454446      0.156298     -0.010454
H      7.64558     15.10445     10.62451         0.465868     -0.170406      0.316168
H     13.33282      5.87395     10.62451        -0.335612      0.127299     -0.004568
H     13.33282     15.10445     10.35389        -0.533107     -0.228438      0.183473
H     12.45634     12.45634     19.01126         0.244695      0.265286     -0.237511
H     19.01126     19.01126     19.01126        -0.253353     -0.263858     -0.231469
H     19.01126     12.45634     12.45634        -0.231989      0.264048      0.246930
H     12.45634     19.01126     12.45634         0.294809     -0.210176      0.241523
C     10.35284      5.61067      6.59456         0.422340     -0.365153     -1.092664
C     10.62556     15.36773      6.59456        -0.184006      0.726251     -0.544771
C     10.62556      5.61067     14.38384         0.298962     -0.307940      0.542141
C     10.35284     15.36773     14.38384        -0.129714      0.313716      0.630179
C      6.59456     10.35284      5.61067        -0.671511     -0.152258     -0.196841
C      6.59456     10.62556     15.36773        -0.544116      0.071756      0.352965
C     14.38384     10.62556      5.61067         1.026420      0.019952     -0.463727
C     14.38384     10.35284     15.36773         0.287913     -0.083324      0.356469
C      5.61067      6.59456     10.35284        -0.368487     -0.491069      0.030907
C     15.36773      6.59456     10.62556         0.217648     -0.776051     -0.241391
C      5.61067     14.38384     10.62556        -0.211159      0.629014     -0.244188
C     15.36773     14.38384     10.35284         0.358787      0.857534     -0.155006
C      5.61067     10.35284      6.59456        -0.220561     -0.143956     -0.306863
C     15.36773     10.62556      6.59456         0.207672      0.085228     -0.319320
C      5.61067     10.62556     14.38384        -0.406615     -0.032992      1.275247
C     15.36773     10.35284     14.38384         0.259530     -0.035934      0.973672
C     10.35284      6.59456      5.61067        -0.014307     -0.338141     -0.479265
C     10.62556      6.59456     15.36773        -0.088317     -0.965156      0.283366
C     10.62556     14.38384      5.61067        -0.374519     -0.130271     -0.742887
C     10.35284     14.38384     15.36773        -0.240305      0.870883      0.272579
C      6.59456      5.61067     10.35284        -0.472236     -0.320032      0.138693
C      6.59456     15.36773     10.62556        -0.545265      0.535645      0.041823
C     14.38384      5.61067     10.62556         0.331647     -0.341885      0.103321
C     14.38384     15.36773     10.35284         0.819543      0.340080     -0.064110
C     10.40319      3.19606      7.29314         0.001104      0.699274     -0.379149
C     10.35913      4.25547      6.23373         0.010573     -0.508012      0.352422
C      0.08601      7.29314      7.29314        -0.026516     -0.703965     -0.493637
C      0.13007      6.23373      6.23373        -0.127179      0.854989      0.159424
C      0.08601      3.19606      3.19606        -0.019748      0.333686      0.369590
C      0.13007      4.25547      4.25547         0.060372     -0.155456     -0.647866
C     10.40319      7.29314      3.19606        -0.046788     -1.135307      1.037007
C     10.35913      6.23373      4.25547         0.021966      0.342299     -0.189175
C      7.29314     10.40319      3.19606        -0.909831     -0.055357      0.368206
C      6.23373     10.35913      4.25547         0.253785      0.036473     -0.521252
C      7.29314      0.08601      7.29314        -0.918795      0.005505     -0.389981
C      6.23373      0.13007      6.23373         0.125684      0.008681      0.096491
C      3.19606      0.08601      3.19606         0.350310     -0.002779      0.349717
C      4.25547      0.13007      4.25547        -0.259367     -0.047614     -0.179707
C      3.19606     10.40319      7.29314         0.491732     -0.045618     -1.138598
C      4.25547     10.35913      6.23373        -0.292467     -0.040920      0.133590
C      3.19606      7.29314     10.40319         0.746987     -0.491822      0.015743
C      4.25547      6.23373     10.35913        -0.116563      0.155774      0.002320
C      7.29314      7.29314      0.08601        -0.415889     -0.270809     -0.006654
C      6.23373      6.23373      0.13007         0.310612      0.074708     -0.153478
C      3.19606      3.19606      0.08601         0.343876      0.669033     -0.009825
C      4.25547      4.25547      0.13007        -0.339646     -0.261590      0.047991
C      7.29314      3.19606     10.40319        -0.218064      0.561433      0.019458
C      6.23373      4.25547     10.35913         0.094189     -0.226973     -0.016424
O     10.43466      3.58206      8.50569        -0.017763      0.094214      0.341904
O     10.54374     17.39634      8.50569         0.070306     -0.019487      0.379102
O     10.54374      3.58206     12.47271         0.046829      0.201759     -0.564077
O     10.43466     17.39634     12.47271         0.041688      0.024109     -0.523370
O      8.50569     10.43466      3.58206         0.667941     -0.074089      0.087227
O      8.50569     10.54374     17.39634         0.892019      0.048668     -0.142120
O     12.47271     10.54374      3.58206        -0.352320      0.048017      0.049261
O     12.47271     10.43466     17.39634        -0.338526     -0.013067      0.075680
O      3.58206      8.50569     10.43466         0.005328      0.428163     -0.080402
O     17.39634      8.50569     10.54374        -0.122525      0.417277      0.029795
O      3.58206     12.47271     10.54374         0.124041     -0.671362     -0.008009
O     17.39634     12.47271     10.43466        -0.245211     -0.658817     -0.011190
O      3.58206     10.43466      8.50569         0.131946     -0.048326      0.858306
O     17.39634     10.54374      8.50569         0.028929      0.042946      0.296876
O      3.58206     10.54374     12.47271         0.067590      0.016594     -0.434845
O     17.39634     10.43466     12.47271        -0.048147      0.015963     -0.360833
O     10.43466      8.50569      3.58206        -0.071231      0.564095     -0.131981
O     10.54374      8.50569     17.39634         0.030436      0.753963     -0.141094
O     10.54374     12.47271      3.58206         0.052652     -0.363628      0.094760
O     10.43466     12.47271     17.39634        -0.065153     -0.722568     -0.237485
O      8.50569      3.58206     10.43466         0.346591      0.065879     -0.057933
O      8.50569     17.39634     10.54374         0.522361     -0.135723      0.017047
O     12.47271      3.58206     10.54374        -0.428301      0.108008      0.014322
O     12.47271     17.39634     10.43466        -0.593718     -0.081759      0.048520
O     11.90042     11.90042     19.56718        -0.251501     -0.277109      0.216606
O     19.56718     19.56718     19.56718         0.293430      0.300101      0.256251
O     19.56718     11.90042     11.90042         0.242964     -0.295681     -0.299854
O     11.90042     19.56718     11.90042        -0.293830      0.166854     -0.249671
O      9.45224      1.03696      9.45224        -0.111072      0.120967     -0.089086
O      1.03696      9.45224      9.45224         0.139839     -0.139997     -0.145114
O      1.03696      1.03696      1.03696         0.143522      0.190874     -0.022387
O      9.45224      9.45224      1.03696        -0.186616     -0.194800      0.039852
Zr     10.48920      2.52580     10.48920         0.015193     -0.252243      0.229662
Zr     10.48920     18.45260     10.48920        -0.220154      0.265030     -0.319739
Zr     10.48920     10.48920      2.52580         0.202835      0.511670     -0.189377
Zr     10.48920     10.48920     18.45260         0.011611     -0.126336      0.466627
Zr      2.52580     10.48920     10.48920        -0.513811      0.082011      0.394249
Zr     18.45260     10.48920     10.48920         0.237436     -0.153191      0.043917
Pd      9.07448     14.49410      9.16609         0.059072     -0.052928      0.044459
Pd      8.27165     13.22459     13.71951         0.048140      0.078663      0.041421
Pd     11.84822     14.36083      8.89196         0.116113      0.014593     -0.031222
Pd     12.27213     12.81459     10.93490        -0.041286     -0.002914     -0.096397
Pd     11.90733      7.13066     12.20731        -0.021594     -0.026280     -0.069124
Pd     10.94656     15.27226     11.26237         0.031009     -0.018894     -0.183081
Pd      9.53330     13.06247     11.36920         0.029429     -0.025473     -0.052862
Pd     13.85736     12.65085      8.38876        -0.008823     -0.071501     -0.078472
Pd     11.75441     11.65296      6.86404        -0.008216      0.141566     -0.104070
Pd      7.51415      8.39617      7.37068         0.021645      0.056816     -0.063786
Pd      8.84387     11.92892      6.88773        -0.048461      0.066904     -0.051742
Pd      9.84700      9.74212      8.06178        -0.003092      0.107422     -0.000409
Pd      8.49065     14.57003      6.49001         0.021382     -0.016645      0.082540
Pd     12.22943      8.94266      7.00276        -0.096612      0.096402     -0.041189
Pd     10.19158      9.92296      5.44735        -0.054406      0.002641     -0.002939
Pd      6.90991      9.17115     12.25363        -0.042311     -0.035481     -0.025089
Pd     12.25823      6.41273      7.91497         0.132556      0.070664     -0.015163
Pd      5.63678     10.54176      9.96712         0.009721     -0.006077      0.028329
Pd      7.65996      6.71258     13.00101         0.042078     -0.013601     -0.008980
Ir     11.29987      9.62878     12.95757         0.008216     -0.018165      0.068057
Ir     13.14114      9.23268     11.26653        -0.100800     -0.186069      0.103302
Ir      9.19699      8.53985     13.95546        -0.039260     -0.011990     -0.100609
Ir     10.26807     10.56595     15.13929        -0.056050     -0.042078     -0.061450
Ir      7.05582     11.80758     11.75743        -0.075566      0.025456     -0.060280
Ir     14.51932     11.10644     10.46719         0.150263      0.167351     -0.070060
Ir     12.39588     10.53955      9.19909        -0.080770     -0.016126     -0.102607
Ir      8.89117     10.82067     12.92493         0.195964     -0.033552      0.142222
Ir     10.03908     10.24060     10.70149        -0.010912      0.057283     -0.003852
Ir     13.29182     11.29171     12.67570         0.070123      0.043430      0.141399
Ir     11.05909     12.13822     13.30670         0.029115     -0.113755      0.102397
Ir      8.02440     11.60830      9.45210         0.078792     -0.104674      0.150011
Ir     11.35613      8.12391      9.68974         0.085150     -0.017152     -0.014187
Ir      6.96509     13.30823      8.17295        -0.041782      0.085877     -0.073170
Ir      9.18661      7.19039      9.01597         0.011442     -0.141997     -0.160854
Ir      7.84645      9.09981      9.83908        -0.124078      0.177182      0.037627
Ir     10.45926     12.23501      9.01367        -0.062902     -0.057272     -0.074311
Ir      9.41381      7.86631     11.47339        -0.028740     -0.065374      0.089421
Ir     13.79965      8.30346      8.98615         0.020749      0.054823     -0.008994
