152
# total energy = -1024.17088903 eVH     10.35389      5.87395      7.64558         0.531637      0.061562      0.771521
H     10.62451     15.10445      7.64558         0.023580     -0.175597      0.554049
H     10.62451      5.87395     13.33282         0.143007      0.158214     -0.646173
H     10.35389     15.10445     13.33282        -0.375211     -0.068610     -0.725754
H      7.64558     10.35389      5.87395         0.328604     -0.008016      0.187196
H      7.64558     10.62451     15.10445         0.885491     -0.338184     -0.018046
H     13.33282     10.62451      5.87395        -0.745677      0.004233      0.180455
H     13.33282     10.35389     15.10445        -0.874320     -0.387192      0.200472
H      5.87395      7.64558     10.35389         0.214832      0.626451     -0.017584
H     15.10445      7.64558     10.62451        -0.146442      0.406276     -0.046720
H      5.87395     13.33282     10.62451         0.169750     -0.497194     -0.091403
H     15.10445     13.33282     10.35389        -0.112478     -1.108068      0.017030
H      5.87395     10.35389      7.64558         0.140172      0.118619      0.464970
H     15.10445     10.62451      7.64558         0.055923      0.143822      1.086269
H      5.87395     10.62451     13.33282         0.112865     -0.023455     -0.399552
H     15.10445     10.35389     13.33282        -0.088015     -0.158202     -0.627307
H     10.35389      7.64558      5.87395         0.082765      0.873043      0.210329
H     10.62451      7.64558     15.10445         0.017110      0.288838     -0.180273
H     10.62451     13.33282      5.87395        -0.057994     -0.538471      0.283418
H     10.35389     13.33282     15.10445        -0.473085     -0.678060     -0.047648
H      7.64558      5.87395     10.35389         0.475118      0.116142      0.060268
H      7.64558     15.10445     10.62451         0.845494     -0.270595     -0.015336
H     13.33282      5.87395     10.62451        -0.525468      0.167791     -0.072615
H     13.33282     15.10445     10.35389        -0.626297     -0.063737      0.234569
H     12.45634     12.45634     19.01126         0.240462      0.278464     -0.231543
H     19.01126     19.01126     19.01126        -0.254839     -0.241904     -0.246689
H     19.01126     12.45634     12.45634        -0.255964      0.272529      0.222165
H     12.45634     19.01126     12.45634         0.226380     -0.262103      0.245942
C     10.35284      5.61067      6.59456        -0.176479     -0.595309      0.052287
C     10.62556     15.36773      6.59456        -0.002019      0.433771     -0.751879
C     10.62556      5.61067     14.38384        -0.041907     -0.097275      0.773163
C     10.35284     15.36773     14.38384         0.156049      0.691470      0.193031
C      6.59456     10.35284      5.61067        -0.389028     -0.029967     -0.260463
C      6.59456     10.62556     15.36773        -1.024662      0.347888      0.410740
C     14.38384     10.62556      5.61067         0.406028      0.295225     -0.593448
C     14.38384     10.35284     15.36773         1.005617     -0.027639      0.393012
C      5.61067      6.59456     10.35284        -0.381919     -0.508139      0.230073
C     15.36773      6.59456     10.62556         0.184064     -0.530325      0.029539
C      5.61067     14.38384     10.62556        -0.143240      0.516116      0.000240
C     15.36773     14.38384     10.35284         0.344185     -0.024430     -0.126842
C      5.61067     10.35284      6.59456        -0.298867     -0.049399     -0.860745
C     15.36773     10.62556      6.59456         0.698879     -0.318545     -1.138176
C      5.61067     10.62556     14.38384        -0.489768     -0.009960      0.253723
C     15.36773     10.35284     14.38384         0.662477     -0.125353      1.130121
C     10.35284      6.59456      5.61067        -0.264073     -0.473143     -0.782722
C     10.62556      6.59456     15.36773         0.050831     -0.294888      0.114835
C     10.62556     14.38384      5.61067         0.155569      1.155084     -0.410395
C     10.35284     14.38384     15.36773         0.209976      0.141123      0.659465
C      6.59456      5.61067     10.35284        -0.389625     -0.736861      0.059869
C      6.59456     15.36773     10.62556        -1.225250      0.289746      0.072717
C     14.38384      5.61067     10.62556         0.787949     -0.260430      0.022926
C     14.38384     15.36773     10.35284        -0.508923      0.735772     -0.356353
C     10.40319      3.19606      7.29314        -0.012731      0.864251     -0.398090
C     10.35913      4.25547      6.23373         0.028837     -0.483427      0.585346
C      0.08601      7.29314      7.29314        -0.010588     -0.496441     -0.391890
C      0.13007      6.23373      6.23373        -0.020211      0.022530      0.099080
C      0.08601      3.19606      3.19606        -0.017144      1.077211      0.188732
C      0.13007      4.25547      4.25547        -0.061724     -0.215207     -0.249498
C     10.40319      7.29314      3.19606        -0.002612     -0.922334      0.465469
C     10.35913      6.23373      4.25547         0.026753      0.476291     -0.614939
C      7.29314     10.40319      3.19606        -0.444141      0.044052      0.822305
C      6.23373     10.35913      4.25547         0.243872      0.091631     -0.116974
C      7.29314      0.08601      7.29314        -0.486453     -0.027852     -0.251556
C      6.23373      0.13007      6.23373         0.407206     -0.062456      0.425992
C      3.19606      0.08601      3.19606         0.746073     -0.019367      0.360253
C      4.25547      0.13007      4.25547        -0.106704     -0.058046     -0.429055
C      3.19606     10.40319      7.29314         0.599669     -0.003118     -0.724522
C      4.25547     10.35913      6.23373        -0.251251      0.109934      0.236767
C      3.19606      7.29314     10.40319         0.504730     -1.349281     -0.038730
C      4.25547      6.23373     10.35913        -0.385696      0.828805      0.037643
C      7.29314      7.29314      0.08601        -0.484953     -0.232859     -0.013209
C      6.23373      6.23373      0.13007         0.170538      0.144398     -0.009996
C      3.19606      3.19606      0.08601         0.247264      0.272521     -0.021789
C      4.25547      4.25547      0.13007        -0.081942     -0.042435      0.016584
C      7.29314      3.19606     10.40319        -0.360346      0.718067      0.013718
C      6.23373      4.25547     10.35913         1.108043      0.065677      0.004021
O     10.43466      3.58206      8.50569        -0.031619      0.043098      0.443973
O     10.54374     17.39634      8.50569        -0.016347     -0.092079      0.458334
O     10.54374      3.58206     12.47271         0.052981     -0.054695     -0.177099
O     10.43466     17.39634     12.47271        -0.044410     -0.072965     -0.536212
O      8.50569     10.43466      3.58206         0.380206     -0.019210     -0.027316
O      8.50569     10.54374     17.39634         0.591701      0.029935     -0.159829
O     12.47271     10.54374      3.58206        -0.668318     -0.025929      0.160128
O     12.47271     10.43466     17.39634        -0.545515     -0.028069     -0.061694
O      3.58206      8.50569     10.43466         0.168030      1.125758     -0.000778
O     17.39634      8.50569     10.54374        -0.062440      0.390952      0.069397
O      3.58206     12.47271     10.54374         0.075279     -0.444343      0.036213
O     17.39634     12.47271     10.43466        -0.155719     -0.720524      0.013311
O      3.58206     10.43466      8.50569         0.009850     -0.072982      0.597370
O     17.39634     10.54374      8.50569        -0.095828      0.041999      0.362722
O      3.58206     10.54374     12.47271         0.028766      0.017604     -0.355135
O     17.39634     10.43466     12.47271        -0.211569      0.021891     -0.720254
O     10.43466      8.50569      3.58206         0.085467      0.814487      0.190315
O     10.54374      8.50569     17.39634         0.057605      0.662117     -0.148337
O     10.54374     12.47271      3.58206        -0.048825     -0.978332      0.244544
O     10.43466     12.47271     17.39634        -0.009646     -0.932424     -0.208977
O      8.50569      3.58206     10.43466         0.513095      0.090116     -0.022461
O      8.50569     17.39634     10.54374         0.588182     -0.229343     -0.029017
O     12.47271      3.58206     10.54374        -0.465152      0.146891      0.054719
O     12.47271     17.39634     10.43466        -0.393524      0.047627     -0.012521
O     11.90042     11.90042     19.56718        -0.270998     -0.331603      0.255444
O     19.56718     19.56718     19.56718         0.286667      0.277001      0.291559
O     19.56718     11.90042     11.90042         0.280919     -0.311767     -0.202775
O     11.90042     19.56718     11.90042        -0.269856      0.284885     -0.261991
O      9.45224      1.03696      9.45224        -0.084286      0.052853     -0.055327
O      1.03696      9.45224      9.45224         0.049039     -0.167449     -0.104328
O      1.03696      1.03696      1.03696         0.009130      0.088738      0.200586
O      9.45224      9.45224      1.03696        -0.057808     -0.082234      0.133475
Zr     10.48920      2.52580     10.48920        -0.017894     -0.095038     -0.155568
Zr     10.48920     18.45260     10.48920         0.050049      0.254846      0.011755
Zr     10.48920     10.48920      2.52580         0.006689     -0.173064     -0.540172
Zr     10.48920     10.48920     18.45260        -0.129876      0.044584      0.476509
Zr      2.52580     10.48920     10.48920        -0.365915      0.311734      0.117558
Zr     18.45260     10.48920     10.48920         0.210038      0.037772     -0.279272
Pd      8.60887      9.89099     13.27888        -0.001681      0.064419      0.103426
Pd     10.55292      9.49810     10.33401        -0.180166      0.108546      0.068978
Pd     13.44113      8.73340     12.51133         0.005103      0.007404     -0.012744
Pd     10.63990     10.63497     15.12287        -0.133800      0.032221     -0.013723
Pd     13.00619     11.32405     13.44859        -0.012432     -0.008362      0.037748
Pd     14.98413     10.78973     11.28762        -0.090721     -0.082544     -0.029342
Pd      6.76284      7.92879     12.57000        -0.116354     -0.043177      0.022638
Pd      9.25814      7.19165      9.63083         0.026901      0.077485      0.008400
Pd      9.39443      7.47659     12.39943         0.161472      0.030594     -0.070926
Pd     11.69668      7.22753     11.10194         0.089133     -0.053797      0.044327
Pd     11.67331      7.83997      8.47576        -0.042300     -0.018541     -0.089528
Pd      7.23497     11.71407     11.62381        -0.066792     -0.029658     -0.027471
Pd      9.29989     14.46116      9.44987        -0.082919      0.066317      0.039971
Pd      8.18696     12.38597     14.20131         0.016179      0.028164      0.045072
Pd     14.16819     14.21984      8.33830         0.025029     -0.040416     -0.038301
Pd     11.68636     13.41198      8.88983        -0.092521      0.044315     -0.019167
Pd     14.04660     11.63828      8.93074         0.079344      0.024169     -0.056566
Pd      8.76518     13.91159     12.14097         0.068154      0.003881     -0.002880
Pd     12.21071     13.84840     14.04446        -0.013154     -0.024521     -0.046473
Pd     11.42858     14.10738     11.45027        -0.036009     -0.061455     -0.047131
Pd     14.07129     13.43158     12.15800         0.004252      0.061351     -0.006057
Pd     12.34619     11.64251     10.91440         0.009478      0.000314      0.101692
Pd     12.80210     12.63681      6.63370        -0.014147     -0.066249     -0.001954
Pd     13.93663      8.91585      7.67258        -0.025016      0.005459     -0.087339
Pd      6.98229      8.43164      8.54130        -0.001359     -0.049638     -0.000909
Pd      5.60064     10.02005     10.24101        -0.035292      0.034394      0.040613
Pd      9.37837      9.39887      7.65291        -0.043231      0.022621      0.000129
Pd      8.48850      6.90507      7.03901         0.014158      0.027121     -0.086496
Pd      9.71544     11.95558     10.56909         0.002737     -0.071231     -0.089214
Pd     11.61925     10.72864      8.19613         0.224159     -0.037048     -0.019165
Pd     11.67559      9.05534      6.07771         0.050377     -0.052494     -0.095277
Pd     10.25379     11.32852      5.88408         0.084236      0.042105     -0.071537
Ir     11.06953      9.55247     12.79887         0.054302     -0.033757     -0.101540
Ir     13.18716      9.34726     10.04483        -0.010110     -0.021256      0.023246
Ir     10.52532     12.03305     12.94277        -0.013644      0.085863     -0.023598
Ir      7.75756     10.95552      9.11991        -0.032496     -0.059250      0.081555
Ir      9.39408     12.28126      8.04674        -0.009046     -0.084358      0.063234
Ir      8.09194      9.22318     10.85461         0.000274      0.094497     -0.164929
