152
# total energy = -1006.00324783 eVH     10.35389      5.87395      7.64558         0.259268      0.034549      0.638410
H     10.62451     15.10445      7.64558        -0.107410     -0.141123      0.512460
H     10.62451      5.87395     13.33282         0.484369      0.121548     -0.583533
H     10.35389     15.10445     13.33282         0.078661     -0.183290     -0.556316
H      7.64558     10.35389      5.87395         0.372413      0.093800      0.162166
H      7.64558     10.62451     15.10445         0.696699      0.471421     -0.039695
H     13.33282     10.62451      5.87395        -0.533378      0.421994      0.074733
H     13.33282     10.35389     15.10445        -0.803472     -0.093612      0.008867
H      5.87395      7.64558     10.35389         0.239785      0.685867     -0.402425
H     15.10445      7.64558     10.62451        -0.095338      0.479554      0.283012
H      5.87395     13.33282     10.62451         0.159676     -0.695822     -0.156301
H     15.10445     13.33282     10.35389        -0.011058     -1.022502     -0.326830
H      5.87395     10.35389      7.64558         0.251904      0.323697      0.760916
H     15.10445     10.62451      7.64558        -0.107591      0.403422      0.758968
H      5.87395     10.62451     13.33282         0.134055      0.327697     -0.690418
H     15.10445     10.35389     13.33282        -0.055767     -0.070746     -0.687170
H     10.35389      7.64558      5.87395         0.395021      1.054856     -0.009405
H     10.62451      7.64558     15.10445         0.536166      0.537175     -0.120739
H     10.62451     13.33282      5.87395        -0.398620     -0.847543      0.186211
H     10.35389     13.33282     15.10445        -0.045129     -0.433508     -0.216564
H      7.64558      5.87395     10.35389         0.848570      0.096795     -0.289525
H      7.64558     15.10445     10.62451         0.837746     -0.196232      0.013250
H     13.33282      5.87395     10.62451        -0.805699      0.197467      0.586921
H     13.33282     15.10445     10.35389        -0.443866     -0.111989     -0.129863
H     12.45634     12.45634     19.01126         0.235300      0.270130     -0.240032
H     19.01126     19.01126     19.01126        -0.262470     -0.240615     -0.261084
H     19.01126     12.45634     12.45634        -0.266908      0.268846      0.218274
H     12.45634     19.01126     12.45634         0.231973     -0.255297      0.278965
C     10.35284      5.61067      6.59456        -0.434077     -0.743671      0.207495
C     10.62556     15.36773      6.59456         0.061180      0.368518     -0.295178
C     10.62556      5.61067     14.38384        -0.333918     -0.359516     -0.306315
C     10.35284     15.36773     14.38384        -0.009357      0.330766      0.544157
C      6.59456     10.35284      5.61067        -0.202597     -0.002115     -0.400843
C      6.59456     10.62556     15.36773        -0.265346     -0.220714      0.809498
C     14.38384     10.62556      5.61067        -0.272758     -0.401194     -0.516842
C     14.38384     10.35284     15.36773         0.977374     -0.053701      0.256580
C      5.61067      6.59456     10.35284        -0.540120      0.005555      0.184373
C     15.36773      6.59456     10.62556         0.524175      0.026416     -0.251465
C      5.61067     14.38384     10.62556        -0.341604      0.971631      0.076587
C     15.36773     14.38384     10.35284         0.318797      1.033018      0.054804
C      5.61067     10.35284      6.59456        -0.178351     -0.327166     -0.626721
C     15.36773     10.62556      6.59456         0.448123     -0.290640      0.119117
C      5.61067     10.62556     14.38384        -0.729896     -0.355499     -0.057627
C     15.36773     10.35284     14.38384         0.386975     -0.060536      1.006754
C     10.35284      6.59456      5.61067        -0.203639     -0.196077     -0.658814
C     10.62556      6.59456     15.36773        -0.267798      0.122138      0.447097
C     10.62556     14.38384      5.61067         0.206833      1.067017     -0.347490
C     10.35284     14.38384     15.36773         0.028122      0.535975      0.433820
C      6.59456      5.61067     10.35284        -0.178715     -0.631232      0.232448
C      6.59456     15.36773     10.62556        -1.025111      0.301341      0.079640
C     14.38384      5.61067     10.62556         0.492943     -0.542925     -0.365036
C     14.38384     15.36773     10.35284         0.215148      0.453871     -0.102574
C     10.40319      3.19606      7.29314         0.006821      0.696153     -0.489368
C     10.35913      4.25547      6.23373         0.085547     -0.731827     -0.015606
C      0.08601      7.29314      7.29314        -0.043954     -0.410686     -0.308652
C      0.13007      6.23373      6.23373        -0.022450      0.082067      0.567586
C      0.08601      3.19606      3.19606        -0.018296      1.247794      0.279790
C      0.13007      4.25547      4.25547         0.048823     -0.776635     -0.152175
C     10.40319      7.29314      3.19606         0.009091     -0.346848      0.358338
C     10.35913      6.23373      4.25547         0.027278      0.015273     -0.905069
C      7.29314     10.40319      3.19606        -0.365575      0.019181      0.565502
C      6.23373     10.35913      4.25547         0.207594      0.048052     -0.131505
C      7.29314      0.08601      7.29314        -0.525645     -0.064140     -0.372013
C      6.23373      0.13007      6.23373         0.680313     -0.046661      0.492648
C      3.19606      0.08601      3.19606         0.665167     -0.037524      0.564820
C      4.25547      0.13007      4.25547        -0.572799     -0.080504     -0.555034
C      3.19606     10.40319      7.29314         0.484503     -0.021574     -0.781413
C      4.25547     10.35913      6.23373        -0.509549      0.027793      0.202486
C      3.19606      7.29314     10.40319         0.283175     -1.250549      0.037629
C      4.25547      6.23373     10.35913        -0.697602      0.099237      0.152562
C      7.29314      7.29314      0.08601        -0.406608     -0.371057     -0.028243
C      6.23373      6.23373      0.13007         0.468426      0.213645     -0.021495
C      3.19606      3.19606      0.08601         0.503073      0.371932     -0.039144
C      4.25547      4.25547      0.13007        -0.148859     -0.651620     -0.034575
C      7.29314      3.19606     10.40319        -0.321669      0.420124      0.074811
C      6.23373      4.25547     10.35913         0.254262     -0.696177      0.135795
O     10.43466      3.58206      8.50569        -0.014149      0.101839      0.509469
O     10.54374     17.39634      8.50569         0.036568     -0.174494      0.481891
O     10.54374      3.58206     12.47271         0.057910     -0.082492     -0.188531
O     10.43466     17.39634     12.47271        -0.038275     -0.182773     -0.568454
O      8.50569     10.43466      3.58206         0.340898      0.005266      0.037265
O      8.50569     10.54374     17.39634         0.632807      0.033247     -0.145428
O     12.47271     10.54374      3.58206        -0.672720      0.082446      0.091283
O     12.47271     10.43466     17.39634        -0.439890      0.027344     -0.111703
O      3.58206      8.50569     10.43466         0.182559      1.029817     -0.049424
O     17.39634      8.50569     10.54374        -0.162930      0.539470      0.076371
O      3.58206     12.47271     10.54374         0.083025     -0.361706      0.048839
O     17.39634     12.47271     10.43466        -0.157794     -0.545623     -0.022721
O      3.58206     10.43466      8.50569         0.075880     -0.061430      0.594575
O     17.39634     10.54374      8.50569        -0.110921      0.065784      0.521489
O      3.58206     10.54374     12.47271         0.058282      0.052343     -0.535653
O     17.39634     10.43466     12.47271        -0.216441     -0.040130     -0.590532
O     10.43466      8.50569      3.58206        -0.038910      0.474655      0.134088
O     10.54374      8.50569     17.39634         0.047948      0.529828     -0.161176
O     10.54374     12.47271      3.58206        -0.004333     -1.002691      0.207283
O     10.43466     12.47271     17.39634         0.041973     -0.735725     -0.174227
O      8.50569      3.58206     10.43466         0.506189      0.146895     -0.053732
O      8.50569     17.39634     10.54374         0.485712     -0.197847      0.013782
O     12.47271      3.58206     10.54374        -0.643122      0.236357      0.008206
O     12.47271     17.39634     10.43466        -0.212868      0.068218     -0.056509
O     11.90042     11.90042     19.56718        -0.239750     -0.288808      0.247771
O     19.56718     19.56718     19.56718         0.309972      0.295157      0.300039
O     19.56718     11.90042     11.90042         0.289995     -0.264933     -0.233243
O     11.90042     19.56718     11.90042        -0.242748      0.290939     -0.337007
O      9.45224      1.03696      9.45224        -0.020696      0.086279     -0.072637
O      1.03696      9.45224      9.45224         0.090871     -0.090882     -0.138857
O      1.03696      1.03696      1.03696         0.088858      0.190216      0.046902
O      9.45224      9.45224      1.03696        -0.112108     -0.099920      0.030704
Zr     10.48920      2.52580     10.48920        -0.132469     -0.291703     -0.035809
Zr     10.48920     18.45260     10.48920        -0.072388      0.213989      0.095953
Zr     10.48920     10.48920      2.52580         0.065292     -0.411699     -0.249792
Zr     10.48920     10.48920     18.45260        -0.269969     -0.089748      0.324585
Zr      2.52580     10.48920     10.48920        -0.375643      0.238171      0.304809
Zr     18.45260     10.48920     10.48920         0.241213      0.000022     -0.222404
Pd     13.60349      8.99218      9.19624        -0.005235     -0.003204     -0.003277
Pd      5.62948      9.86576     10.12490         0.000676      0.000162     -0.006358
Pd      6.77064     11.84604     11.70844        -0.001227     -0.000085      0.000606
Pd     12.05786     12.99327      7.35802        -0.005433     -0.002894      0.001603
Pd     11.87408      7.73718      7.45116        -0.000370     -0.007191     -0.004484
Pd      8.31686      6.82468      6.52178         0.001257     -0.010127     -0.004646
Pd     10.55797     11.16771      5.65586        -0.017775     -0.000410      0.000051
Pd     14.39845      8.54691      6.72582        -0.002370     -0.000341     -0.001899
Pd      9.66359     11.72902      8.15257         0.002890     -0.004788      0.006189
Pd      6.72402      6.78612     12.34254        -0.001600     -0.002250      0.001508
Pd      6.62799      8.28853      7.86662         0.012185      0.011495     -0.015461
Pd      6.52292      8.48984     14.39338         0.000540     -0.001495      0.003006
Pd     11.48124      6.50717      9.95006        -0.002069     -0.004184      0.000592
Pd      9.45498      9.19788      7.17339        -0.002626     -0.004469      0.000762
Pd      8.97849     13.99176      9.36952        -0.000194     -0.001494      0.005538
Pd      9.42931      7.36602     11.69477        -0.003562      0.000623     -0.003694
Pd     10.63360      8.95516      9.67110         0.002969     -0.003481     -0.006506
Pd      9.34061     11.57382     10.74040        -0.002299      0.002963      0.005403
Pd      8.85803      7.07189      9.10391        -0.002106     -0.000686     -0.004560
Pd      8.55427      6.58021     14.23224         0.000876     -0.000224     -0.001345
Pd      7.61313      9.31791     12.03830        -0.003413     -0.000937      0.004472
Pd     11.93739     10.37294      7.70499         0.000435     -0.004402     -0.011821
Pd      7.12878     12.01425      9.06682         0.001467     -0.003011     -0.001018
Pd      8.15281      9.62514      9.48378         0.004300     -0.003046      0.007013
Pd     14.00890      6.50172      8.52537        -0.000304     -0.002293     -0.000169
Pd     12.62857      8.40817     11.56335        -0.005074     -0.000706     -0.002808
Pd      8.75879     11.57026     13.41487        -0.000965     -0.001159      0.004862
Pd     13.86631     11.90711      8.96887        -0.005548     -0.004216     -0.001459
Pd     12.93041     10.70039     13.07621        -0.002552     -0.005208     -0.002459
Pd     14.75926     10.42640     11.12129        -0.006312     -0.005040     -0.002684
Pd     12.04584     10.89629     10.53885        -0.005113      0.000168     -0.003064
Pd     11.44864     13.34986      9.92650         0.000898      0.001658      0.003272
Pd     13.59687     12.91012     11.62627         0.000804     -0.006401     -0.000908
Pd     11.11270     12.62980     12.54546         0.000256     -0.000663      0.002178
Pd     10.94188     11.06742     14.81805         0.002089     -0.001137      0.000358
Pd     10.49557      9.71881     12.37725        -0.004945     -0.000106     -0.001505
Pd      9.08405      9.14139     14.43745         0.001632     -0.000909      0.002850
Pd      8.79429     13.86596     12.07256        -0.002362      0.000562      0.008002
