26
# total energy = -205.61070497 eVC      0.70324      1.25137      7.50000         0.006213     -0.002755      0.000000
C     10.79568      6.56647      7.50000         0.025737     -0.000531      0.000000
C      0.73811     11.42924      7.50000         0.000110     -0.006691      0.000000
C     11.53091      5.33405      7.50000        -0.006213      0.002755      0.000000
C      1.43847      0.01895      7.50000        -0.025737      0.000531     -0.000000
C     11.49604     -4.84382      7.50000        -0.000110      0.006691     -0.000000
C     10.79625     -3.65004      7.50000        -0.003310      0.010682      0.000000
C     10.85597      4.12594      7.50000         0.000363     -0.020223      0.000000
C      2.82682      0.04360      7.50000         0.012813     -0.000390     -0.000000
C      1.43790     10.23546      7.50000         0.003310     -0.010682     -0.000000
C      1.37818      2.45948      7.50000        -0.000363      0.020223     -0.000000
C      9.40733      6.54182      7.50000        -0.012813      0.000390     -0.000000
N      7.76452      0.25951      7.50000        -0.000684      0.008954      0.000000
N      4.46963      6.32591      7.50000         0.000684     -0.008954      0.000000
N      4.00932      0.08401      7.50000        -0.007149     -0.004216      0.000000
N     10.23048     -2.61082      7.50000        -0.003269      0.012354     -0.000000
N     10.29645      3.08333      7.50000        -0.005793     -0.010199     -0.000000
N      8.22483      6.50141      7.50000         0.007149      0.004216     -0.000000
N      2.00367      9.19624      7.50000         0.003269     -0.012354     -0.000000
N      1.93770      3.50209      7.50000         0.005793      0.010199      0.000000
Ir      2.99142      7.53257      7.50000         0.010335     -0.007921      0.000000
Ir      2.98045      5.13103      7.50000         0.010051      0.004042     -0.000000
Ir      6.29743      6.40889      7.50000        -0.003052     -0.002003      0.000000
Ir      9.24273     -0.94715      7.50000        -0.010335      0.007921      0.000000
Ir      9.25370      1.45439      7.50000        -0.010051     -0.004042     -0.000000
Ir      5.93672      0.17653      7.50000         0.003052      0.002003     -0.000000
