152
# total energy = -1005.74694338 eVH     10.35389      5.87395      7.64558         0.160687      0.098341      0.562492
H     10.62451     15.10445      7.64558        -0.112843     -0.149444      0.497293
H     10.62451      5.87395     13.33282         0.571742      0.099094     -0.720971
H     10.35389     15.10445     13.33282         0.037497     -0.165142     -0.434369
H      7.64558     10.35389      5.87395         0.353528      0.033991      0.167591
H      7.64558     10.62451     15.10445         0.814638      0.488771     -0.026641
H     13.33282     10.62451      5.87395        -0.449357      0.343985      0.117934
H     13.33282     10.35389     15.10445        -0.844907     -0.071697      0.015523
H      5.87395      7.64558     10.35389         0.298050      1.155138      0.045374
H     15.10445      7.64558     10.62451        -0.105488      0.481598      0.286995
H      5.87395     13.33282     10.62451         0.184965     -0.655205     -0.043442
H     15.10445     13.33282     10.35389        -0.068385     -0.964190     -0.216822
H      5.87395     10.35389      7.64558         0.214294      0.038955      0.452368
H     15.10445     10.62451      7.64558        -0.138602      0.488179      0.784194
H      5.87395     10.62451     13.33282         0.121315      0.350200     -0.841516
H     15.10445     10.35389     13.33282        -0.073354     -0.037298     -0.664641
H     10.35389      7.64558      5.87395         0.337938      1.131016      0.052286
H     10.62451      7.64558     15.10445         0.712715      0.652509     -0.181875
H     10.62451     13.33282      5.87395        -0.400700     -0.796489      0.258117
H     10.35389     13.33282     15.10445        -0.085100     -0.467412     -0.277941
H      7.64558      5.87395     10.35389         0.920229      0.048617     -0.241787
H      7.64558     15.10445     10.62451         0.815082     -0.183403      0.010164
H     13.33282      5.87395     10.62451        -0.750168      0.181603      0.537209
H     13.33282     15.10445     10.35389        -0.383452     -0.115960     -0.103168
H     12.45634     12.45634     19.01126         0.244080      0.269764     -0.235243
H     19.01126     19.01126     19.01126        -0.268975     -0.246748     -0.248318
H     19.01126     12.45634     12.45634        -0.274037      0.264325      0.222532
H     12.45634     19.01126     12.45634         0.235246     -0.263173      0.271589
C     10.35284      5.61067      6.59456        -0.329657     -0.701734     -0.054454
C     10.62556     15.36773      6.59456         0.082772      0.357029     -0.255253
C     10.62556      5.61067     14.38384        -0.167316     -0.496132     -0.034444
C     10.35284     15.36773     14.38384         0.010711      0.212526      0.400914
C      6.59456     10.35284      5.61067        -0.376936      0.009812     -0.256013
C      6.59456     10.62556     15.36773        -0.475603     -0.021276      0.626300
C     14.38384     10.62556      5.61067        -0.237901     -0.464280     -0.639562
C     14.38384     10.35284     15.36773         1.022256     -0.085260      0.182324
C      5.61067      6.59456     10.35284        -0.665664     -0.162835     -0.353850
C     15.36773      6.59456     10.62556         0.553386      0.003921     -0.298051
C      5.61067     14.38384     10.62556        -0.287324      0.833469      0.015124
C     15.36773     14.38384     10.35284         0.299046      0.972182      0.040953
C      5.61067     10.35284      6.59456        -0.277568     -0.014991     -0.730001
C     15.36773     10.62556      6.59456         0.474896     -0.278246      0.168688
C      5.61067     10.62556     14.38384        -0.605661     -0.169108      0.143689
C     15.36773     10.35284     14.38384         0.423640     -0.041807      1.026104
C     10.35284      6.59456      5.61067        -0.184257     -0.700740     -0.562773
C     10.62556      6.59456     15.36773        -0.129455     -0.238954      0.590559
C     10.62556     14.38384      5.61067         0.208387      1.089449     -0.360307
C     10.35284     14.38384     15.36773        -0.003019      0.790057      0.388667
C      6.59456      5.61067     10.35284        -0.037082     -1.058904      0.190627
C      6.59456     15.36773     10.62556        -0.980880      0.233182      0.087365
C     14.38384      5.61067     10.62556         0.344609     -0.536866     -0.372008
C     14.38384     15.36773     10.35284         0.154211      0.412508     -0.072010
C     10.40319      3.19606      7.29314         0.008444      0.811819     -0.471723
C     10.35913      4.25547      6.23373         0.072091     -0.561943      0.086017
C      0.08601      7.29314      7.29314        -0.049376     -0.647864     -0.270352
C      0.13007      6.23373      6.23373        -0.037524      0.146628      0.533944
C      0.08601      3.19606      3.19606         0.011266      1.401770      0.277695
C      0.13007      4.25547      4.25547         0.036306     -0.710360     -0.203563
C     10.40319      7.29314      3.19606         0.006607     -0.326511      0.276414
C     10.35913      6.23373      4.25547         0.025763      0.034230     -0.728596
C      7.29314     10.40319      3.19606        -0.247514      0.017935      0.558614
C      6.23373     10.35913      4.25547         0.149581      0.048342     -0.065069
C      7.29314      0.08601      7.29314        -0.694123     -0.073389     -0.324674
C      6.23373      0.13007      6.23373         0.754516     -0.131314      0.447684
C      3.19606      0.08601      3.19606         0.964523     -0.019882      0.589508
C      4.25547      0.13007      4.25547        -0.565741     -0.068381     -0.583494
C      3.19606     10.40319      7.29314         0.513029     -0.009598     -0.764079
C      4.25547     10.35913      6.23373        -0.277591      0.070628      0.212153
C      3.19606      7.29314     10.40319         0.285008     -1.275958      0.031478
C      4.25547      6.23373     10.35913        -1.012231      0.033717      0.115031
C      7.29314      7.29314      0.08601        -0.426384     -0.407857     -0.017495
C      6.23373      6.23373      0.13007         0.498983      0.237455      0.004633
C      3.19606      3.19606      0.08601         0.459454      0.378818     -0.037085
C      4.25547      4.25547      0.13007        -0.138737     -0.613616     -0.038430
C      7.29314      3.19606     10.40319        -0.363738      0.426666      0.057700
C      6.23373      4.25547     10.35913         0.270049     -0.726076      0.137916
O     10.43466      3.58206      8.50569        -0.011677      0.069494      0.467701
O     10.54374     17.39634      8.50569         0.055675     -0.119385      0.416956
O     10.54374      3.58206     12.47271         0.031329     -0.119433     -0.161486
O     10.43466     17.39634     12.47271        -0.031531     -0.174279     -0.518725
O      8.50569     10.43466      3.58206         0.263242     -0.022197      0.009169
O      8.50569     10.54374     17.39634         0.713542     -0.015269     -0.167556
O     12.47271     10.54374      3.58206        -0.827340      0.099971      0.091219
O     12.47271     10.43466     17.39634        -0.460454      0.031672     -0.081692
O      3.58206      8.50569     10.43466         0.159845      1.054480     -0.025145
O     17.39634      8.50569     10.54374        -0.158687      0.570349      0.072056
O      3.58206     12.47271     10.54374         0.101760     -0.424161      0.047924
O     17.39634     12.47271     10.43466        -0.148768     -0.533557     -0.028555
O      3.58206     10.43466      8.50569         0.079984     -0.085586      0.618006
O     17.39634     10.54374      8.50569        -0.065688      0.085235      0.466898
O      3.58206     10.54374     12.47271        -0.001774      0.031533     -0.488277
O     17.39634     10.43466     12.47271        -0.237963     -0.043685     -0.656221
O     10.43466      8.50569      3.58206        -0.038124      0.447259      0.140529
O     10.54374      8.50569     17.39634        -0.020841      0.633823     -0.186639
O     10.54374     12.47271      3.58206         0.041864     -1.023333      0.123419
O     10.43466     12.47271     17.39634         0.050222     -0.780348     -0.203045
O      8.50569      3.58206     10.43466         0.553288      0.156850     -0.056884
O      8.50569     17.39634     10.54374         0.513696     -0.186240      0.006326
O     12.47271      3.58206     10.54374        -0.608843      0.200176      0.001224
O     12.47271     17.39634     10.43466        -0.243141      0.061456     -0.043401
O     11.90042     11.90042     19.56718        -0.255797     -0.297406      0.236321
O     19.56718     19.56718     19.56718         0.320249      0.297535      0.271561
O     19.56718     11.90042     11.90042         0.311122     -0.261635     -0.237489
O     11.90042     19.56718     11.90042        -0.236838      0.302018     -0.322091
O      9.45224      1.03696      9.45224        -0.001252      0.080363     -0.110707
O      1.03696      9.45224      9.45224         0.090457     -0.072877     -0.151432
O      1.03696      1.03696      1.03696         0.110721      0.174056      0.035136
O      9.45224      9.45224      1.03696        -0.097345     -0.109310      0.022461
Zr     10.48920      2.52580     10.48920        -0.107250     -0.246388     -0.007948
Zr     10.48920     18.45260     10.48920        -0.092814      0.189894      0.127560
Zr     10.48920     10.48920      2.52580        -0.114634     -0.426030     -0.226180
Zr     10.48920     10.48920     18.45260        -0.201435     -0.055032      0.385238
Zr      2.52580     10.48920     10.48920        -0.359415      0.252177      0.268264
Zr     18.45260     10.48920     10.48920         0.181992      0.002795     -0.147490
Pd     13.62231      8.94111      9.18661        -0.012165     -0.005527      0.017440
Pd      5.69365      9.79781     10.05446        -0.034598      0.027653      0.003976
Pd      6.78174     11.65921     11.68342        -0.003305      0.028529     -0.006708
Pd     12.19260     13.09199      7.32912        -0.007674     -0.000339      0.002499
Pd     12.03993      7.85534      7.28045        -0.024862     -0.006061      0.026582
Pd      8.29184      7.04580      6.57912        -0.001330     -0.006024     -0.004638
Pd     10.89729     11.26637      5.58168        -0.017688     -0.010545      0.011486
Pd     14.58773      8.53123      6.73469        -0.024707      0.001811      0.011604
Pd      9.65820     11.79611      7.99520        -0.000589     -0.001495      0.010128
Pd      6.81384      6.79137     12.26683         0.050836      0.016104     -0.007078
Pd      6.37525      7.62901      8.26844         0.015702      0.017843      0.003104
Pd      6.83712      8.67520     14.08875        -0.063751     -0.014838      0.037957
Pd     11.55312      6.52873      9.60842        -0.015741     -0.019516      0.025924
Pd      9.71625      9.29207      6.93158        -0.029199     -0.002954      0.043120
Pd      9.01412     13.96715      9.38244         0.003076      0.007862     -0.012155
Pd      9.76559      7.22224     11.64972        -0.097014      0.025152      0.008179
Pd     10.51427      8.97352      9.59344         0.010049     -0.009794      0.022472
Pd      9.33129     11.35164     10.59853         0.000817      0.029879      0.005738
Pd      8.86986      7.00950      9.14906         0.011801     -0.011446     -0.011400
Pd      8.66976      6.73000     14.08841        -0.010883      0.012905      0.048449
Pd      7.88133      9.16695     11.61534        -0.051040      0.065284      0.087156
Pd     11.96946     10.49238      7.83610        -0.000645     -0.005451     -0.001075
Pd      7.13343     12.05284      9.07623         0.003855     -0.009369     -0.013902
Pd      8.03653      9.58220      8.90758         0.006341     -0.009968      0.091978
Pd     14.09950      6.47885      8.47059        -0.010041     -0.002290      0.009188
Pd     12.48294      8.25233     11.50019        -0.016317      0.005758      0.015730
Pd      8.75927     11.42427     13.40521         0.000028      0.040023     -0.007457
Pd     13.91009     11.92878      9.02921         0.004536      0.005875     -0.009765
Pd     12.88250     10.58482     13.08826        -0.003600      0.005201     -0.013222
Pd     14.74847     10.35320     11.13937         0.006392      0.009016     -0.005521
Pd     12.06747     10.75447     10.57524         0.002988      0.019014     -0.013256
Pd     11.44882     13.17015      9.85578         0.006447      0.025258      0.004474
Pd     13.56715     12.83265     11.66153         0.008132      0.008469     -0.000511
Pd     11.04485     12.53458     12.44474         0.009798      0.018947      0.000756
Pd     11.03733     11.30491     14.86271        -0.027674     -0.037993     -0.022869
Pd     10.46152      9.62943     12.49019        -0.010975      0.018212     -0.023815
Pd      9.37084      9.24283     14.81093        -0.070699     -0.005011     -0.057710
Pd      8.69247     13.63932     11.99726         0.011434      0.036661     -0.005605
