26
# total energy = -169.64831907 eVH      0.37201      6.90887      7.50000         0.020941      0.011589      0.000000
H      2.82215      2.06147      7.50000         0.009206      0.009948      0.000000
H      6.19525      6.71728      7.50000        -0.020562      0.042474      0.000000
H      8.94197     -1.55403      7.50000        -0.020941     -0.011589      0.000000
H      6.49183      3.29338      7.50000        -0.009206     -0.009948      0.000000
H      3.11873     -1.36243      7.50000         0.020562     -0.042474      0.000000
C      8.50729      4.15764      7.50000         0.027101      0.032852     -0.000000
C      1.45210     -0.08618      7.50000        -0.006886      0.065058     -0.000000
C      8.70990     -3.71361      7.50000        -0.045983     -0.015063     -0.000000
C      0.80669      1.19721      7.50000        -0.027101     -0.032852     -0.000000
C      7.86188      5.44103      7.50000         0.006886     -0.065058      0.000000
C      0.60409      9.06846      7.50000         0.045983      0.015063     -0.000000
C      8.20610     -2.36294      7.50000         0.014584      0.044493      0.000000
C      7.54924      2.98343      7.50000         0.001261     -0.005861      0.000000
C      2.85598     -0.31321      7.50000         0.019448      0.014764      0.000000
C      1.10788      7.71779      7.50000        -0.014584     -0.044493      0.000000
C      1.76474      2.37142      7.50000        -0.001261      0.005861     -0.000000
C      6.45800      5.66805      7.50000        -0.019448     -0.014764      0.000000
O      6.96113     -2.07442      7.50000        -0.008966      0.030354      0.000000
O      7.81231      1.78093      7.50000         0.001744     -0.015449      0.000000
O      3.86908      0.51722      7.50000         0.001654      0.028153      0.000000
O      2.35285      7.42927      7.50000         0.008966     -0.030354      0.000000
O      1.50167      3.57392      7.50000        -0.001744      0.015449      0.000000
O      5.44491      4.83763      7.50000        -0.001654     -0.028153      0.000000
Au      5.62203     -0.55481      7.50000         0.029563     -0.009032     -0.000000
Au      3.69195      5.90966      7.50000        -0.029563      0.009032      0.000000
