152
# total energy = -1004.60810884 eVH     10.35389      5.87395      7.64558        -0.087127      0.087312      0.686680
H     10.62451     15.10445      7.64558        -0.079045     -0.186741      0.533262
H     10.62451      5.87395     13.33282         0.401882      0.021602     -0.861414
H     10.35389     15.10445     13.33282         0.045465     -0.165994     -0.490708
H      7.64558     10.35389      5.87395         0.359246      0.038427      0.155547
H      7.64558     10.62451     15.10445         0.961289      0.616427      0.018417
H     13.33282     10.62451      5.87395        -0.507339      0.210969      0.095687
H     13.33282     10.35389     15.10445        -0.850271     -0.248761      0.050125
H      5.87395      7.64558     10.35389         0.255671      1.695745      0.212716
H     15.10445      7.64558     10.62451        -0.096257      0.522977      0.251438
H      5.87395     13.33282     10.62451         0.194290     -0.573895     -0.016162
H     15.10445     13.33282     10.35389         0.094466     -1.199669     -0.406437
H      5.87395     10.35389      7.64558         0.154025      0.040143      0.484967
H     15.10445     10.62451      7.64558        -0.187464      0.748854      1.172576
H      5.87395     10.62451     13.33282         0.002366      0.520662     -1.182266
H     15.10445     10.35389     13.33282         0.033275     -0.192115     -0.789427
H     10.35389      7.64558      5.87395         0.151047      1.375320      0.081863
H     10.62451      7.64558     15.10445         0.517184      0.748841     -0.114710
H     10.62451     13.33282      5.87395        -0.356238     -0.667452      0.314387
H     10.35389     13.33282     15.10445        -0.251812     -0.481629     -0.330456
H      7.64558      5.87395     10.35389         1.123732     -0.165611     -0.110190
H      7.64558     15.10445     10.62451         0.821571     -0.192333     -0.035142
H     13.33282      5.87395     10.62451        -0.580731      0.135445      0.610905
H     13.33282     15.10445     10.35389        -0.569967     -0.039237     -0.252259
H     12.45634     12.45634     19.01126         0.265514      0.260844     -0.228993
H     19.01126     19.01126     19.01126        -0.272815     -0.259001     -0.223274
H     19.01126     12.45634     12.45634        -0.278119      0.258030      0.223570
H     12.45634     19.01126     12.45634         0.240040     -0.276769      0.249565
C     10.35284      5.61067      6.59456        -0.183399     -0.819538     -0.285942
C     10.62556     15.36773      6.59456         0.032415      0.218485     -0.383189
C     10.62556      5.61067     14.38384        -0.039495     -0.386041      0.590638
C     10.35284     15.36773     14.38384         0.002681      0.278766      0.492803
C      6.59456     10.35284      5.61067        -0.448541      0.038501     -0.278487
C      6.59456     10.62556     15.36773        -0.889965      0.148939      0.688358
C     14.38384     10.62556      5.61067         0.526999     -0.084748     -0.871424
C     14.38384     10.35284     15.36773         0.961521     -0.111134      0.320521
C      5.61067      6.59456     10.35284        -0.870077     -0.776510     -0.381306
C     15.36773      6.59456     10.62556         0.678473     -0.044047     -0.270954
C      5.61067     14.38384     10.62556        -0.232502      0.638890      0.007895
C     15.36773     14.38384     10.35284         0.327510      1.151588      0.081509
C      5.61067     10.35284      6.59456        -0.270502      0.017113     -0.723074
C     15.36773     10.62556      6.59456         0.587682     -0.186082     -0.572868
C      5.61067     10.62556     14.38384        -0.554787     -0.014011      0.748299
C     15.36773     10.35284     14.38384         0.508099     -0.085432      1.069922
C     10.35284      6.59456      5.61067        -0.044404     -0.905799     -0.410420
C     10.62556      6.59456     15.36773         0.137006     -0.799640      0.498088
C     10.62556     14.38384      5.61067         0.082654      1.155689     -0.304622
C     10.35284     14.38384     15.36773        -0.027865      1.087081      0.526166
C      6.59456      5.61067     10.35284        -0.393097     -1.242066      0.126535
C      6.59456     15.36773     10.62556        -0.975979      0.178744      0.112013
C     14.38384      5.61067     10.62556        -0.130764     -0.463911     -0.332819
C     14.38384     15.36773     10.35284         0.282785      0.537355     -0.047494
C     10.40319      3.19606      7.29314         0.014552      0.939233     -0.498921
C     10.35913      4.25547      6.23373         0.057402     -0.580788      0.126092
C      0.08601      7.29314      7.29314        -0.028732     -0.967236     -0.198471
C      0.13007      6.23373      6.23373        -0.095230      0.277183      0.314191
C      0.08601      3.19606      3.19606         0.049333      1.356535      0.151165
C      0.13007      4.25547      4.25547        -0.037854     -0.371234     -0.329988
C     10.40319      7.29314      3.19606        -0.000817     -0.473577      0.279208
C     10.35913      6.23373      4.25547        -0.007556      0.105656     -0.781652
C      7.29314     10.40319      3.19606        -0.280140      0.018377      0.551036
C      6.23373     10.35913      4.25547         0.201489      0.086422     -0.112110
C      7.29314      0.08601      7.29314        -1.020072     -0.102382     -0.359225
C      6.23373      0.13007      6.23373         0.723143     -0.210648      0.438859
C      3.19606      0.08601      3.19606         1.204510     -0.022969      0.480465
C      4.25547      0.13007      4.25547        -0.680066     -0.190717     -0.367626
C      3.19606     10.40319      7.29314         0.577557      0.018433     -0.411942
C      4.25547     10.35913      6.23373        -0.236943      0.107455      0.227390
C      3.19606      7.29314     10.40319         0.352353     -0.956282      0.033563
C      4.25547      6.23373     10.35913        -1.119943      0.143949      0.177062
C      7.29314      7.29314      0.08601        -0.472486     -0.503030     -0.014522
C      6.23373      6.23373      0.13007         0.485241      0.321568      0.016386
C      3.19606      3.19606      0.08601         0.513905      0.407324     -0.027065
C      4.25547      4.25547      0.13007        -0.047248     -0.708538     -0.091540
C      7.29314      3.19606     10.40319        -0.400064      0.508576      0.056375
C      6.23373      4.25547     10.35913         0.519555     -0.721903      0.216187
O     10.43466      3.58206      8.50569        -0.012593      0.056026      0.465254
O     10.54374     17.39634      8.50569         0.057946     -0.024513      0.251878
O     10.54374      3.58206     12.47271         0.000543     -0.099681     -0.103983
O     10.43466     17.39634     12.47271        -0.037393     -0.139648     -0.499532
O      8.50569     10.43466      3.58206         0.339643     -0.022954      0.034596
O      8.50569     10.54374     17.39634         0.853037     -0.053839     -0.159826
O     12.47271     10.54374      3.58206        -0.881425      0.101097      0.056586
O     12.47271     10.43466     17.39634        -0.581168      0.023814     -0.136680
O      3.58206      8.50569     10.43466         0.191368      0.938695     -0.017775
O     17.39634      8.50569     10.54374        -0.150582      0.672174      0.046902
O      3.58206     12.47271     10.54374         0.104187     -0.540240      0.050057
O     17.39634     12.47271     10.43466        -0.166122     -0.606703     -0.031766
O      3.58206     10.43466      8.50569         0.074417     -0.065488      0.477756
O     17.39634     10.54374      8.50569         0.017277      0.098154      0.405447
O      3.58206     10.54374     12.47271        -0.020216      0.029608     -0.388336
O     17.39634     10.43466     12.47271        -0.217802     -0.033307     -0.679276
O     10.43466      8.50569      3.58206        -0.037575      0.561507      0.158226
O     10.54374      8.50569     17.39634        -0.083929      0.779419     -0.222766
O     10.54374     12.47271      3.58206         0.076720     -0.950616      0.125512
O     10.43466     12.47271     17.39634         0.078401     -0.786703     -0.207029
O      8.50569      3.58206     10.43466         0.571449      0.142461     -0.049263
O      8.50569     17.39634     10.54374         0.551082     -0.151391     -0.000740
O     12.47271      3.58206     10.54374        -0.680491      0.153888      0.022774
O     12.47271     17.39634     10.43466        -0.400662     -0.031356     -0.037901
O     11.90042     11.90042     19.56718        -0.312220     -0.297367      0.234605
O     19.56718     19.56718     19.56718         0.312406      0.303315      0.217659
O     19.56718     11.90042     11.90042         0.327937     -0.268771     -0.231069
O     11.90042     19.56718     11.90042        -0.258396      0.338033     -0.278733
O      9.45224      1.03696      9.45224        -0.016412      0.077656     -0.134981
O      1.03696      9.45224      9.45224         0.066725     -0.045962     -0.146237
O      1.03696      1.03696      1.03696         0.085545      0.122670      0.069114
O      9.45224      9.45224      1.03696        -0.072955     -0.064598      0.050546
Zr     10.48920      2.52580     10.48920        -0.047752     -0.204332      0.013474
Zr     10.48920     18.45260     10.48920        -0.022511      0.095804      0.193957
Zr     10.48920     10.48920      2.52580        -0.242631     -0.440520     -0.303334
Zr     10.48920     10.48920     18.45260         0.044317      0.031698      0.445508
Zr      2.52580     10.48920     10.48920        -0.230698      0.138492      0.058549
Zr     18.45260     10.48920     10.48920         0.179670     -0.011274     -0.033061
Pd     13.12289      8.56626      9.71828         0.020333      0.037762     -0.021767
Pd      6.08252      9.68695     10.17239        -0.007592     -0.004468      0.014600
Pd      6.95281     11.60496     11.76071        -0.042211     -0.048218     -0.020075
Pd     12.30193     13.11878      7.39882        -0.007842      0.081410     -0.060688
Pd     12.11867      7.75049      7.02912         0.031446      0.020560     -0.022314
Pd      8.47117      7.24212      6.90167        -0.030402     -0.013297     -0.037965
Pd     11.25503     11.39661      5.56973         0.005284      0.018718      0.027775
Pd     14.53764      8.73525      7.40693         0.004874     -0.080084     -0.052983
Pd      9.92487     11.79767      8.01155         0.001394     -0.077386      0.002511
Pd      6.99463      7.06195     12.08075        -0.008430     -0.005051      0.012187
Pd      6.35432      7.48379      8.41749        -0.011124      0.027166     -0.012817
Pd      7.20258      9.09505     13.70215        -0.022356      0.000896     -0.033938
Pd     11.47310      6.41304      9.22398        -0.014552      0.008841      0.016864
Pd      9.95552      9.46633      6.67603         0.023787     -0.022581      0.008700
Pd      9.07296     14.00219      9.34213        -0.031602     -0.010699      0.049484
Pd     10.82568      7.46679     11.45679        -0.048516      0.003738     -0.004343
Pd     10.49843      9.14164      9.33397         0.025253     -0.031764      0.031978
Pd      9.49316     11.51884     10.61472        -0.005734     -0.044360      0.051798
Pd      8.88771      7.11094      9.56829         0.017855     -0.010810     -0.014809
Pd      9.17924      7.42049     13.46317         0.001568     -0.034371      0.056032
Pd      8.50877      9.18805     11.32461        -0.023798     -0.067163     -0.062860
Pd     12.29381     10.37434      7.81457        -0.012358      0.031508      0.048673
Pd      7.31042     11.98292      9.15021        -0.028290      0.021905     -0.007947
Pd      8.07046      9.57871      8.46320        -0.008163     -0.044811      0.033248
Pd     14.04971      6.36244      8.48660         0.006112     -0.004142     -0.002673
Pd     13.09758      8.51979     12.35741        -0.025784     -0.032681     -0.034424
Pd      8.94950     11.45247     13.40051        -0.028842     -0.024309      0.028746
Pd     13.87771     11.98921      9.14893        -0.022344     -0.035903     -0.034414
Pd     13.13730     11.15451     13.20506         0.006714     -0.010377     -0.018000
Pd     14.71221     10.35556     11.08047         0.010317      0.027198     -0.041680
Pd     12.05848     10.78659     10.73106         0.021827      0.007236      0.001744
Pd     11.51802     13.31611      9.88422         0.000099     -0.061289      0.062684
Pd     13.61415     13.18075     11.63564         0.025387     -0.073441     -0.017663
Pd     11.12678     12.77892     12.46489        -0.043788      0.000647     -0.053739
Pd     11.17149     11.57395     14.91285         0.017233     -0.016622      0.027787
Pd     10.82694      9.74554     12.82664        -0.013539     -0.017883     -0.026940
Pd      9.54713      9.49834     15.19317        -0.097257     -0.020605      0.012311
Pd      8.69336     13.72399     12.00056         0.013694      0.033494      0.003478
