152
# total energy = -1060.11547544 eVH     10.35389      5.87395      7.64558        -0.279616      0.050832      1.120841
H     10.62451     15.10445      7.64558         0.104857     -0.087569      0.913637
H     10.62451      5.87395     13.33282        -0.262818      0.080145     -0.787028
H     10.35389     15.10445     13.33282         0.104951     -0.300406     -0.862161
H      7.64558     10.35389      5.87395         0.931108     -0.147012      0.190518
H      7.64558     10.62451     15.10445         0.320641     -0.030303     -0.073112
H     13.33282     10.62451      5.87395        -0.860497      0.196860      0.205032
H     13.33282     10.35389     15.10445        -0.280946     -0.015881     -0.065760
H      5.87395      7.64558     10.35389         0.087833      0.417817     -0.005512
H     15.10445      7.64558     10.62451        -0.013263      0.489212     -0.024158
H      5.87395     13.33282     10.62451        -0.012292     -0.959557      0.081598
H     15.10445     13.33282     10.35389        -0.095317     -0.324585      0.005088
H      5.87395     10.35389      7.64558         0.285952      0.108629      0.402737
H     15.10445     10.62451      7.64558        -0.123154     -0.168837      0.670332
H      5.87395     10.62451     13.33282        -0.083343      0.463385     -0.626826
H     15.10445     10.35389     13.33282         0.241981     -0.608349     -0.850479
H     10.35389      7.64558      5.87395        -0.037531      0.485410      0.335572
H     10.62451      7.64558     15.10445         0.266369      0.772578     -0.032675
H     10.62451     13.33282      5.87395         0.124342     -0.577112      0.211338
H     10.35389     13.33282     15.10445         0.041071     -0.291030     -0.144648
H      7.64558      5.87395     10.35389         0.351232      0.103143      0.035376
H      7.64558     15.10445     10.62451         0.383513     -0.119854      0.170259
H     13.33282      5.87395     10.62451        -0.316834      0.131733     -0.029995
H     13.33282     15.10445     10.35389        -0.651948     -0.132951      0.152005
H     12.45634     12.45634     19.01126         0.256505      0.271594     -0.227692
H     19.01126     19.01126     19.01126        -0.247485     -0.267488     -0.244677
H     19.01126     12.45634     12.45634        -0.250216      0.270025      0.235519
H     12.45634     19.01126     12.45634         0.290569     -0.235261      0.235115
C     10.35284      5.61067      6.59456         0.399492     -0.410389     -1.416064
C     10.62556     15.36773      6.59456        -0.161825      0.594766     -0.652985
C     10.62556      5.61067     14.38384         0.380397     -0.325661      0.832520
C     10.35284     15.36773     14.38384        -0.220892      0.237793      1.072769
C      6.59456     10.35284      5.61067        -1.375144      0.022869     -0.226377
C      6.59456     10.62556     15.36773        -0.633692      0.063500      0.359661
C     14.38384     10.62556      5.61067         1.316502     -0.171014     -0.636975
C     14.38384     10.35284     15.36773         0.351054     -0.128553      0.363131
C      5.61067      6.59456     10.35284        -0.282583     -0.650979     -0.023141
C     15.36773      6.59456     10.62556         0.422013     -0.942917      0.029287
C      5.61067     14.38384     10.62556        -0.144104      1.165486     -0.178507
C     15.36773     14.38384     10.35284         0.465139      0.660908     -0.028332
C      5.61067     10.35284      6.59456        -0.368432     -0.099484     -0.721715
C     15.36773     10.62556      6.59456         0.398707      0.117707     -0.710566
C      5.61067     10.62556     14.38384        -0.373162     -0.168724      1.233898
C     15.36773     10.35284     14.38384         0.248770      0.195371      1.441698
C     10.35284      6.59456      5.61067        -0.056576     -0.720407     -0.582509
C     10.62556      6.59456     15.36773        -0.111398     -0.907342      0.348802
C     10.62556     14.38384      5.61067        -0.479662      0.413149     -0.713653
C     10.35284     14.38384     15.36773        -0.157892      0.604435      0.423428
C      6.59456      5.61067     10.35284        -0.517023     -0.331257      0.021755
C      6.59456     15.36773     10.62556        -0.364055      0.439797      0.061459
C     14.38384      5.61067     10.62556         0.450445     -0.367462      0.001079
C     14.38384     15.36773     10.35284         1.117431      0.488044     -0.077131
C     10.40319      3.19606      7.29314        -0.002346      0.716196     -0.344350
C     10.35913      4.25547      6.23373         0.014362     -0.417447      0.291312
C      0.08601      7.29314      7.29314        -0.013977     -0.381134     -0.504670
C      0.13007      6.23373      6.23373        -0.066889      0.848577      0.068519
C      0.08601      3.19606      3.19606        -0.003301      0.685445      0.265155
C      0.13007      4.25547      4.25547         0.037198     -0.272064     -0.546932
C     10.40319      7.29314      3.19606        -0.065719     -1.147135      0.597408
C     10.35913      6.23373      4.25547        -0.040566      0.363012     -0.201271
C      7.29314     10.40319      3.19606        -1.084399     -0.055841      0.200236
C      6.23373     10.35913      4.25547         0.370096      0.088382     -0.547526
C      7.29314      0.08601      7.29314        -0.456432      0.031445     -0.495761
C      6.23373      0.13007      6.23373         0.182745      0.124375      0.124945
C      3.19606      0.08601      3.19606         0.695344      0.023497      0.164875
C      4.25547      0.13007      4.25547        -0.175402     -0.053523     -0.355874
C      3.19606     10.40319      7.29314         0.402363     -0.027092     -0.901058
C      4.25547     10.35913      6.23373        -0.150831     -0.072906      0.103929
C      3.19606      7.29314     10.40319         0.611256     -0.399097      0.002970
C      4.25547      6.23373     10.35913        -0.111867      0.182601      0.000990
C      7.29314      7.29314      0.08601        -0.413921     -0.309165     -0.014214
C      6.23373      6.23373      0.13007         0.173819      0.184734     -0.071022
C      3.19606      3.19606      0.08601         0.289580      0.480670     -0.023297
C      4.25547      4.25547      0.13007        -0.407323     -0.233553     -0.033692
C      7.29314      3.19606     10.40319        -0.278234      0.595748     -0.009932
C      6.23373      4.25547     10.35913         0.005433     -0.110991      0.020490
O     10.43466      3.58206      8.50569        -0.028596      0.085061      0.313433
O     10.54374     17.39634      8.50569         0.060932     -0.124854      0.585627
O     10.54374      3.58206     12.47271         0.028232      0.105865     -0.393422
O     10.43466     17.39634     12.47271         0.090792     -0.049198     -0.400124
O      8.50569     10.43466      3.58206         0.708212     -0.062409      0.011299
O      8.50569     10.54374     17.39634         0.508624      0.059680     -0.085013
O     12.47271     10.54374      3.58206        -0.649283      0.118913      0.205878
O     12.47271     10.43466     17.39634        -0.288303     -0.004235      0.025990
O      3.58206      8.50569     10.43466         0.037921      0.459233     -0.070210
O     17.39634      8.50569     10.54374        -0.059509      0.449403      0.057498
O      3.58206     12.47271     10.54374         0.115270     -0.582713      0.001547
O     17.39634     12.47271     10.43466        -0.177375     -0.746746     -0.053138
O      3.58206     10.43466      8.50569         0.207536     -0.060539      0.784419
O     17.39634     10.54374      8.50569        -0.084844      0.074046      0.525862
O      3.58206     10.54374     12.47271        -0.002590     -0.001854     -0.266607
O     17.39634     10.43466     12.47271         0.034416     -0.011817     -0.233893
O     10.43466      8.50569      3.58206        -0.104887      0.564407     -0.114609
O     10.54374      8.50569     17.39634         0.068773      0.510905     -0.083973
O     10.54374     12.47271      3.58206         0.104377     -0.625619      0.132192
O     10.43466     12.47271     17.39634        -0.056909     -0.675792     -0.266340
O      8.50569      3.58206     10.43466         0.392873      0.024959     -0.038553
O      8.50569     17.39634     10.54374         0.630400     -0.155488      0.046802
O     12.47271      3.58206     10.54374        -0.507532      0.126640      0.034713
O     12.47271     17.39634     10.43466        -0.623089     -0.130103      0.041917
O     11.90042     11.90042     19.56718        -0.273444     -0.305395      0.231721
O     19.56718     19.56718     19.56718         0.304495      0.317516      0.299117
O     19.56718     11.90042     11.90042         0.284024     -0.323907     -0.232366
O     11.90042     19.56718     11.90042        -0.315903      0.229146     -0.202969
O      9.45224      1.03696      9.45224        -0.086912      0.091431     -0.064493
O      1.03696      9.45224      9.45224         0.107604     -0.120664     -0.046391
O      1.03696      1.03696      1.03696         0.083781      0.057912      0.096655
O      9.45224      9.45224      1.03696        -0.061954     -0.131463      0.131861
Zr     10.48920      2.52580     10.48920         0.031895     -0.095164      0.086907
Zr     10.48920     18.45260     10.48920        -0.172325      0.259100     -0.346030
Zr     10.48920     10.48920      2.52580         0.120588      0.352578     -0.344348
Zr     10.48920     10.48920     18.45260        -0.083496     -0.210594      0.194813
Zr      2.52580     10.48920     10.48920        -0.256853      0.126020      0.233948
Zr     18.45260     10.48920     10.48920         0.222983     -0.119940     -0.013245
Pd      9.39551     14.28439      9.33443        -0.000456      0.042294     -0.043658
Pd      8.61603     13.69550     12.99932        -0.008872     -0.016191      0.025304
Pd     12.04190     14.40779      8.74537         0.013397     -0.014761      0.005138
Pd     12.74936     12.82102     10.65278        -0.033390     -0.005929      0.050439
Pd     12.14721      7.11375     12.61627        -0.001291     -0.000585     -0.001655
Pd     11.19637     14.85641     11.48596        -0.023302      0.043609     -0.028872
Pd     10.05639     12.52340     11.08973        -0.050060      0.044795     -0.049725
Pd     13.48724     12.14081      7.98552         0.011813      0.011273      0.006933
Pd     11.48480     11.56085      6.10899         0.008492      0.004598     -0.007647
Pd      7.86263      8.53185      7.54013         0.010389     -0.043746     -0.007516
Pd      8.73254     11.73598      6.87645        -0.010322      0.009752     -0.024103
Pd     10.30463      9.46263      8.14597        -0.010959      0.000508      0.004665
Pd      8.50197     14.44206      6.82472        -0.013666      0.014141     -0.031633
Pd     12.36732      9.04021      6.59284         0.000196      0.010435      0.015493
Pd      9.74439      9.61328      5.55462        -0.000319      0.008065      0.002249
Pd      6.87186      9.46295     12.18900         0.005829      0.006453     -0.003381
Pd     12.21058      6.69856      7.88311         0.000879      0.016182      0.019231
Pd      5.94432     10.45544      9.72893        -0.013362     -0.012471      0.000337
Pd      7.57498      7.14855     13.28541        -0.003293      0.020773      0.041541
Ir     11.77605      9.69578     13.06172        -0.034970     -0.003259      0.006351
Ir     13.56889      9.00560     11.45241        -0.018009      0.023625      0.012638
Ir      9.41477      8.83470     13.91891        -0.018133     -0.004011      0.060801
Ir     10.54948     10.89386     14.91684        -0.016075     -0.030526      0.075527
Ir      7.28511     12.02217     11.36554         0.005613     -0.021081      0.010919
Ir     14.67892     10.86003     10.12667        -0.022529      0.038347      0.050957
Ir     12.19883     10.49502      9.65049        -0.009670      0.036924     -0.017057
Ir      8.80402     11.04384     13.00721         0.017494      0.026405     -0.044215
Ir     10.13912      9.87247     11.19496        -0.009746      0.047476     -0.055927
Ir     13.73161     11.36880     12.44774        -0.067731      0.013864      0.060213
Ir     11.58753     12.27722     13.11419        -0.096199     -0.033987      0.000982
Ir      8.52353     11.07870      9.37008        -0.002096     -0.013642     -0.017028
Ir     11.60068      7.97912     10.07823         0.008610      0.005798      0.013702
Ir      7.24667     13.01333      8.70237        -0.004909      0.034582      0.000641
Ir      9.52191      6.99871      9.12878         0.012793     -0.020825      0.032222
Ir      8.06591      8.74935     10.09614        -0.021844      0.035359     -0.010651
Ir     10.75605     12.09726      8.52687        -0.005783     -0.002372     -0.011318
Ir      9.56447      7.47885     11.68226        -0.013077      0.043706      0.052880
Ir     13.70443      8.71192      8.81530         0.014469      0.010567      0.015739
