152
# total energy = -1110.40131135 eVH     10.35389      5.87395      7.64558        -0.418958     -0.121780      1.233689
H     10.62451     15.10445      7.64558         0.305863      0.077525      0.896758
H     10.62451      5.87395     13.33282        -0.311609     -0.669241     -1.285450
H     10.35389     15.10445     13.33282        -0.571322      0.437141     -0.351517
H      7.64558     10.35389      5.87395         0.565068     -0.507859     -0.108509
H      7.64558     10.62451     15.10445         0.393848     -0.228473      0.040075
H     13.33282     10.62451      5.87395        -0.606488      0.659086     -0.062343
H     13.33282     10.35389     15.10445        -0.522428      0.360936      0.137301
H      5.87395      7.64558     10.35389         0.147982      0.566548      0.021791
H     15.10445      7.64558     10.62451         0.418405      1.047781      0.314510
H      5.87395     13.33282     10.62451        -0.216907     -0.514584      0.362238
H     15.10445     13.33282     10.35389         0.028836     -0.295559     -0.380894
H      5.87395     10.35389      7.64558        -0.123622     -0.451523      1.525423
H     15.10445     10.62451      7.64558         0.222085      0.543169      1.343412
H      5.87395     10.62451     13.33282        -0.230621     -0.372458     -1.219216
H     15.10445     10.35389     13.33282         0.613816      1.056423     -1.533597
H     10.35389      7.64558      5.87395        -0.618866      0.558195     -0.162687
H     10.62451      7.64558     15.10445        -0.124408      0.414934      0.134898
H     10.62451     13.33282      5.87395         0.857610     -1.292822     -0.305799
H     10.35389     13.33282     15.10445         0.196486     -0.559837     -0.118497
H      7.64558      5.87395     10.35389         0.740705      0.151419     -0.194035
H      7.64558     15.10445     10.62451         1.986335      0.719867      0.243349
H     13.33282      5.87395     10.62451        -2.595572     -0.826499     -0.566022
H     13.33282     15.10445     10.35389        -0.870392     -0.061231     -0.252410
H     12.45634     12.45634     19.01126         0.271819      0.257681     -0.228106
H     19.01126     19.01126     19.01126        -0.266616     -0.254564     -0.239459
H     19.01126     12.45634     12.45634        -0.284973      0.282375      0.183099
H     12.45634     19.01126     12.45634         0.257129     -0.250455      0.235156
C     10.35284      5.61067      6.59456         0.087365     -0.443116     -1.172872
C     10.62556     15.36773      6.59456         0.207752      0.754087     -0.809267
C     10.62556      5.61067     14.38384         0.163906     -0.286040      1.775861
C     10.35284     15.36773     14.38384         0.076328      0.379206      1.775263
C      6.59456     10.35284      5.61067        -1.141834     -0.112659     -0.931071
C      6.59456     10.62556     15.36773        -0.698683     -0.087503      0.821352
C     14.38384     10.62556      5.61067         0.805681     -0.116827     -0.968391
C     14.38384     10.35284     15.36773         1.147836      0.167164      1.073588
C      5.61067      6.59456     10.35284        -0.670678     -0.920672     -0.195012
C     15.36773      6.59456     10.62556         2.046919     -0.373740     -0.187725
C      5.61067     14.38384     10.62556        -1.571130     -0.024215     -0.141187
C     15.36773     14.38384     10.35284         0.480605      0.102052     -0.008075
C      5.61067     10.35284      6.59456        -0.273169      0.234452     -1.364428
C     15.36773     10.62556      6.59456         0.310409     -0.292423     -0.953805
C      5.61067     10.62556     14.38384        -0.266586      0.463530      1.451728
C     15.36773     10.35284     14.38384        -0.054696     -0.548517      1.935820
C     10.35284      6.59456      5.61067        -0.138532     -0.808829     -0.721675
C     10.62556      6.59456     15.36773        -0.120733     -0.683065      1.026410
C     10.62556     14.38384      5.61067        -0.494335      1.968540     -0.727764
C     10.35284     14.38384     15.36773        -0.242120      1.301474      0.516518
C      6.59456      5.61067     10.35284        -1.017607     -0.404216      0.105342
C      6.59456     15.36773     10.62556        -1.224771      0.359699     -0.334564
C     14.38384      5.61067     10.62556         1.245027     -1.310712      0.267576
C     14.38384     15.36773     10.35284         0.454501      0.302682      0.095920
C     10.40319      3.19606      7.29314         0.001732      0.306534     -0.123985
C     10.35913      4.25547      6.23373         0.142596     -0.624002      0.022824
C      0.08601      7.29314      7.29314        -0.054389     -0.262693     -0.414107
C      0.13007      6.23373      6.23373        -0.126934      0.635924      0.005839
C      0.08601      3.19606      3.19606        -0.105140      1.690390      0.160990
C      0.13007      4.25547      4.25547        -0.111425     -0.383016     -1.183029
C     10.40319      7.29314      3.19606         0.016912     -0.474946      0.120274
C     10.35913      6.23373      4.25547         0.266085      0.092618     -0.562270
C      7.29314     10.40319      3.19606        -1.721971      0.014849      0.326328
C      6.23373     10.35913      4.25547         0.691019      0.083454     -0.633808
C      7.29314      0.08601      7.29314        -0.414904     -0.018608     -0.325918
C      6.23373      0.13007      6.23373         0.765518     -0.061315      0.227925
C      3.19606      0.08601      3.19606         0.667085     -0.020509      0.175940
C      4.25547      0.13007      4.25547        -0.338303     -0.093597     -0.612380
C      3.19606     10.40319      7.29314         0.330882      0.027938     -0.323819
C      4.25547     10.35913      6.23373        -0.752589      0.092784      0.354434
C      3.19606      7.29314     10.40319         0.278627     -0.196925     -0.006796
C      4.25547      6.23373     10.35913         0.041096      0.620804      0.091508
C      7.29314      7.29314      0.08601        -0.706583     -0.602839     -0.037898
C      6.23373      6.23373      0.13007         0.905357      1.121027     -0.061617
C      3.19606      3.19606      0.08601         0.830890      0.515686     -0.009794
C      4.25547      4.25547      0.13007        -0.306603     -1.785466     -0.135478
C      7.29314      3.19606     10.40319        -0.320925      0.268395     -0.005455
C      6.23373      4.25547     10.35913         0.519556     -0.016561      0.233849
O     10.43466      3.58206      8.50569        -0.048745      0.190939      0.262730
O     10.54374     17.39634      8.50569         0.042308     -0.238838      0.489347
O     10.54374      3.58206     12.47271         0.085054     -0.086918     -0.012871
O     10.43466     17.39634     12.47271        -0.023892     -0.139766     -0.262120
O      8.50569     10.43466      3.58206         0.996898      0.195946      0.366293
O      8.50569     10.54374     17.39634         0.586314      0.083797     -0.230835
O     12.47271     10.54374      3.58206        -0.405530     -0.042898      0.176966
O     12.47271     10.43466     17.39634        -0.496436     -0.064947     -0.188962
O      3.58206      8.50569     10.43466         0.185615      0.418381     -0.028018
O     17.39634      8.50569     10.54374        -0.229045      0.706679      0.048068
O      3.58206     12.47271     10.54374         0.161987     -0.683924      0.027652
O     17.39634     12.47271     10.43466        -0.188182     -0.472197     -0.009201
O      3.58206     10.43466      8.50569         0.238910     -0.064151      0.410872
O     17.39634     10.54374      8.50569        -0.173074      0.037661      0.413911
O      3.58206     10.54374     12.47271         0.149369      0.021626     -0.303799
O     17.39634     10.43466     12.47271         0.090484     -0.054090     -0.061001
O     10.43466      8.50569      3.58206         0.011094      0.276654      0.186023
O     10.54374      8.50569     17.39634         0.068490      0.416520     -0.168775
O     10.54374     12.47271      3.58206        -0.220872     -0.979172      0.314401
O     10.43466     12.47271     17.39634        -0.080419     -0.456529     -0.245714
O      8.50569      3.58206     10.43466         0.484085      0.198107     -0.008158
O      8.50569     17.39634     10.54374         0.661325     -0.207604      0.023957
O     12.47271      3.58206     10.54374        -0.749956      0.285372      0.041595
O     12.47271     17.39634     10.43466        -0.428578     -0.207860     -0.042913
O     11.90042     11.90042     19.56718        -0.347583     -0.306260      0.262980
O     19.56718     19.56718     19.56718         0.322574      0.311400      0.285790
O     19.56718     11.90042     11.90042         0.272176     -0.271019     -0.136380
O     11.90042     19.56718     11.90042        -0.304828      0.280549     -0.232343
O      9.45224      1.03696      9.45224        -0.063796      0.074524     -0.042733
O      1.03696      9.45224      9.45224         0.035610     -0.077056     -0.068254
O      1.03696      1.03696      1.03696         0.068696      0.158892      0.088940
O      9.45224      9.45224      1.03696        -0.152101     -0.105387      0.089805
Zr     10.48920      2.52580     10.48920         0.169891     -0.180289     -0.172577
Zr     10.48920     18.45260     10.48920        -0.101148      0.193286     -0.055123
Zr     10.48920     10.48920      2.52580         0.355751     -0.311940     -0.215017
Zr     10.48920     10.48920     18.45260         0.023833     -0.091214      0.195076
Zr      2.52580     10.48920     10.48920        -0.076106      0.183596     -0.052843
Zr     18.45260     10.48920     10.48920         0.154224     -0.137075     -0.256790
Ir     12.03374     12.47840     10.45116         0.000858      0.000866     -0.003227
Ir     11.24017      7.40986     10.18807         0.006738     -0.005763     -0.011347
Ir      8.86361      7.33139     11.48049        -0.005256     -0.005513     -0.008263
Ir      7.43680     11.64695      7.65831        -0.006936     -0.000515     -0.001239
Ir     11.59722     12.05448      7.10090         0.001182     -0.001135     -0.001800
Ir     13.80010      8.99303      7.48758        -0.005626     -0.007482     -0.009742
Ir     12.46170     13.94561      8.39559        -0.004814     -0.009912     -0.002501
Ir      9.75283     11.24727      5.51671         0.001741     -0.000990     -0.002956
Ir      9.07084     13.41660      7.07906        -0.000926     -0.007713      0.000975
Ir      9.24971      9.68756      7.47579         0.001308     -0.002014     -0.005116
Ir     13.27897      7.01739     11.97748         0.000070     -0.008694      0.007257
Ir     13.68352      7.04553      9.09442         0.004649     -0.000312     -0.010606
Ir     11.03891      7.58042     12.75022        -0.003205     -0.002200     -0.008853
Ir     13.58424     11.56126      8.74383        -0.003474     -0.001219     -0.002762
Ir     11.49614      9.59346      6.19922         0.003167     -0.005493     -0.008504
Ir      7.16963      9.12882      8.90571         0.009023     -0.001396     -0.000612
Ir     14.06540     11.43923     11.63221        -0.000534     -0.004528     -0.004569
Ir     11.66480      9.79224      8.82753         0.007150     -0.003998     -0.010194
Ir      9.45289      9.48665     10.20689         0.003581     -0.002797     -0.002118
Ir     13.89141      9.41624     10.14163         0.003857     -0.005182     -0.012021
Ir     13.86948      9.15272     12.84603         0.010066     -0.011242     -0.006951
Ir     11.71754      9.74921     11.50891         0.007109      0.000187     -0.007968
Ir      9.92720     11.71384      8.95434         0.005583      0.008704     -0.000881
Ir      9.14534      7.44090      8.71100        -0.001118      0.002391     -0.006773
Ir     11.70978      7.47019      7.66723         0.008552     -0.009184     -0.012346
Ir      9.25421      9.44675     12.98887        -0.000447     -0.001419     -0.001240
Ir      7.50188     13.89559      8.99534         0.001489     -0.002428     -0.000806
Ir     10.85113     14.08189     11.95773        -0.000436     -0.002237     -0.000608
Ir     10.11170     14.13053      9.50988         0.002945     -0.007316     -0.002862
Ir      9.79029     11.66198     11.72057         0.003392     -0.000236     -0.000079
Ir      7.59626     11.55017     10.20111         0.003667      0.000190     -0.004323
Ir      8.33982     13.71920     11.57905         0.000387     -0.003314     -0.001520
Ir      7.52784     11.51869     12.81632         0.001802     -0.003330     -0.002068
Ir      9.79693     11.55303     14.34169         0.006111     -0.008585     -0.001367
Ir     13.45660     13.87651     12.18244         0.002059     -0.004898     -0.000705
Ir     11.99296     12.02432     13.06923         0.001175     -0.004015     -0.003392
Ir     11.60225      9.74075     14.14231         0.006223     -0.008018     -0.008182
Ir      7.16335      9.32706     11.45935         0.002238     -0.000524     -0.005966
