14
# total energy = -118.06528324 eVC      2.49879      8.11288     -0.00000        -0.012380      0.010674     -0.000000
C      4.84346      8.11288      0.00000         0.012380      0.010674      0.000000
C      2.39604      1.43496      0.00000         0.012380     -0.010674      0.000000
C      0.05137      1.43496     -0.00000        -0.012380     -0.010674     -0.000000
C      1.96357      2.80964      0.00000        -0.013068      0.000018      0.000000
C      0.48385      2.80964     -0.00000         0.013068      0.000018     -0.000000
C      2.93126      6.73820     -0.00000         0.013068     -0.000018     -0.000000
C      4.41098      6.73820     -0.00000        -0.013068     -0.000018      0.000000
C      1.22371      8.73040     -0.00000        -0.000000     -0.001620      0.000000
C      3.67112      0.81744     -0.00000        -0.000000      0.001620      0.000000
C      1.22371      0.60619     -0.00000         0.000000     -0.005150     -0.000000
C      3.67112      8.94165     -0.00000        -0.000000      0.005150      0.000000
Ir      2.44741      4.77392     -0.00000        -0.000000     -0.000000      0.000000
Ir     -0.00000      4.77392     -0.00000        -0.000000     -0.000000      0.000000
