152
# total energy = -1004.00647714 eVH     10.35389      5.87395      7.64558        -0.276677      0.263173      0.552180
H     10.62451     15.10445      7.64558        -0.303551     -0.128466      0.722799
H     10.62451      5.87395     13.33282         0.478778      0.018346     -0.952535
H     10.35389     15.10445     13.33282         0.069674     -0.187651     -0.496236
H      7.64558     10.35389      5.87395         0.446436      0.058815      0.081868
H      7.64558     10.62451     15.10445         0.754504      0.579238     -0.056944
H     13.33282     10.62451      5.87395        -0.440651     -0.182223      0.341527
H     13.33282     10.35389     15.10445        -0.671026     -0.125779     -0.051886
H      5.87395      7.64558     10.35389         0.099360      1.553593      0.102722
H     15.10445      7.64558     10.62451        -0.082485      0.529192      0.093357
H      5.87395     13.33282     10.62451         0.201967     -0.786819      0.095551
H     15.10445     13.33282     10.35389         0.170539     -1.338546     -0.210916
H      5.87395     10.35389      7.64558         0.069974      0.094779      0.619135
H     15.10445     10.62451      7.64558        -0.215092      0.859595      1.335954
H      5.87395     10.62451     13.33282        -0.042329      0.463522     -1.395397
H     15.10445     10.35389     13.33282         0.199438     -0.078425     -0.830764
H     10.35389      7.64558      5.87395         0.308950      1.397525      0.193413
H     10.62451      7.64558     15.10445         0.576226      0.927959     -0.047468
H     10.62451     13.33282      5.87395        -0.607782     -0.803923      0.182081
H     10.35389     13.33282     15.10445        -0.083967     -0.498106     -0.259588
H      7.64558      5.87395     10.35389         1.200318     -0.278906     -0.347022
H      7.64558     15.10445     10.62451         0.671588     -0.202644     -0.011425
H     13.33282      5.87395     10.62451        -0.687102      0.099633      0.547626
H     13.33282     15.10445     10.35389        -0.316844     -0.065575     -0.075460
H     12.45634     12.45634     19.01126         0.268558      0.243788     -0.236080
H     19.01126     19.01126     19.01126        -0.265313     -0.274987     -0.213422
H     19.01126     12.45634     12.45634        -0.270013      0.255469      0.234377
H     12.45634     19.01126     12.45634         0.258015     -0.280527      0.226044
C     10.35284      5.61067      6.59456        -0.086270     -0.835020     -0.733261
C     10.62556     15.36773      6.59456         0.135331      0.370666     -0.235711
C     10.62556      5.61067     14.38384        -0.072875     -0.711255      0.670530
C     10.35284     15.36773     14.38384        -0.008196      0.215611      0.499360
C      6.59456     10.35284      5.61067        -0.678422      0.078759     -0.495655
C      6.59456     10.62556     15.36773        -0.899746      0.203758      0.784890
C     14.38384     10.62556      5.61067         1.019916      0.043587     -1.037478
C     14.38384     10.35284     15.36773         0.994412     -0.053360      0.548297
C      5.61067      6.59456     10.35284        -0.793976     -0.712663     -0.478524
C     15.36773      6.59456     10.62556         0.732906      0.039880     -0.192325
C      5.61067     14.38384     10.62556        -0.249957      0.970434     -0.042179
C     15.36773     14.38384     10.35284         0.333900      1.463124     -0.121227
C      5.61067     10.35284      6.59456        -0.329687     -0.025288     -0.759006
C     15.36773     10.62556      6.59456         0.410986     -0.416419     -0.918069
C      5.61067     10.62556     14.38384        -0.354427     -0.065373      1.115133
C     15.36773     10.35284     14.38384         0.254471      0.001453      1.017748
C     10.35284      6.59456      5.61067        -0.004760     -1.099673     -0.318157
C     10.62556      6.59456     15.36773         0.002737     -0.838494      0.651498
C     10.62556     14.38384      5.61067         0.093525      0.902725     -0.483391
C     10.35284     14.38384     15.36773        -0.021747      0.642046      0.319834
C      6.59456      5.61067     10.35284        -0.732930     -1.148635      0.139999
C      6.59456     15.36773     10.62556        -0.715129      0.161068      0.073863
C     14.38384      5.61067     10.62556        -0.054877     -0.505561     -0.349661
C     14.38384     15.36773     10.35284         0.043188      0.579023     -0.054558
C     10.40319      3.19606      7.29314        -0.003129      0.511985     -0.817368
C     10.35913      4.25547      6.23373        -0.017328     -0.467487      0.125651
C      0.08601      7.29314      7.29314        -0.036100     -1.042220     -0.271702
C      0.13007      6.23373      6.23373        -0.037082      0.430448      0.477598
C      0.08601      3.19606      3.19606         0.032723      1.124991      0.224980
C      0.13007      4.25547      4.25547         0.005808     -0.431883     -0.441509
C     10.40319      7.29314      3.19606        -0.023727     -0.643610      0.196433
C     10.35913      6.23373      4.25547        -0.054573      0.130479     -0.673938
C      7.29314     10.40319      3.19606        -0.404586      0.016126      0.229545
C      6.23373     10.35913      4.25547         0.193679      0.044001     -0.130471
C      7.29314      0.08601      7.29314        -1.219418     -0.076522     -0.414785
C      6.23373      0.13007      6.23373         0.664665     -0.187422      0.350798
C      3.19606      0.08601      3.19606         1.211854     -0.020579      0.246509
C      4.25547      0.13007      4.25547        -0.616156     -0.117970     -0.204089
C      3.19606     10.40319      7.29314         0.505514      0.030431     -0.259958
C      4.25547     10.35913      6.23373        -0.228404      0.040685      0.158009
C      3.19606      7.29314     10.40319         0.273639     -0.521031      0.056728
C      4.25547      6.23373     10.35913        -0.885805     -0.031433      0.151043
C      7.29314      7.29314      0.08601        -0.451883     -0.434007     -0.020686
C      6.23373      6.23373      0.13007         0.478380      0.270971      0.072187
C      3.19606      3.19606      0.08601         0.602048      0.471724     -0.022211
C      4.25547      4.25547      0.13007        -0.147368     -0.822264     -0.086394
C      7.29314      3.19606     10.40319        -0.348357      0.443466      0.051195
C      6.23373      4.25547     10.35913         0.536804     -0.681295      0.177722
O     10.43466      3.58206      8.50569         0.051472      0.246320      0.727476
O     10.54374     17.39634      8.50569         0.053952     -0.031089      0.315741
O     10.54374      3.58206     12.47271         0.003795     -0.025388     -0.264893
O     10.43466     17.39634     12.47271        -0.030135     -0.087634     -0.353758
O      8.50569     10.43466      3.58206         0.572152     -0.044375      0.149998
O      8.50569     10.54374     17.39634         0.876400     -0.080658     -0.156339
O     12.47271     10.54374      3.58206        -0.879927      0.145274      0.125870
O     12.47271     10.43466     17.39634        -0.573143      0.033238     -0.185930
O      3.58206      8.50569     10.43466         0.186197      0.625834     -0.043546
O     17.39634      8.50569     10.54374        -0.148853      0.616895      0.019982
O      3.58206     12.47271     10.54374         0.123664     -0.566730      0.044110
O     17.39634     12.47271     10.43466        -0.181194     -0.560824     -0.054653
O      3.58206     10.43466      8.50569         0.104167     -0.041045      0.389437
O     17.39634     10.54374      8.50569         0.062030      0.100184      0.330752
O      3.58206     10.54374     12.47271        -0.026322      0.027519     -0.222743
O     17.39634     10.43466     12.47271        -0.117815     -0.030118     -0.399945
O     10.43466      8.50569      3.58206        -0.044955      0.671985      0.186308
O     10.54374      8.50569     17.39634        -0.086279      0.805451     -0.147473
O     10.54374     12.47271      3.58206         0.135796     -0.911950      0.177881
O     10.43466     12.47271     17.39634        -0.000144     -0.402083     -0.037822
O      8.50569      3.58206     10.43466         0.548156      0.145327     -0.050645
O      8.50569     17.39634     10.54374         0.578822     -0.165507      0.019004
O     12.47271      3.58206     10.54374        -0.704976      0.124888      0.024954
O     12.47271     17.39634     10.43466        -0.508754     -0.128194     -0.031359
O     11.90042     11.90042     19.56718        -0.318131     -0.268745      0.251025
O     19.56718     19.56718     19.56718         0.292107      0.324288      0.209388
O     19.56718     11.90042     11.90042         0.343312     -0.288236     -0.248865
O     11.90042     19.56718     11.90042        -0.284111      0.349265     -0.215797
O      9.45224      1.03696      9.45224        -0.047034      0.101937     -0.114042
O      1.03696      9.45224      9.45224         0.072122     -0.033617     -0.099148
O      1.03696      1.03696      1.03696         0.059062      0.080197      0.114259
O      9.45224      9.45224      1.03696        -0.031550     -0.023278      0.104210
Zr     10.48920      2.52580     10.48920        -0.092547     -0.223667      0.171912
Zr     10.48920     18.45260     10.48920         0.026829      0.059402      0.057109
Zr     10.48920     10.48920      2.52580        -0.310535     -0.184772     -0.421995
Zr     10.48920     10.48920     18.45260         0.194991      0.034733      0.307300
Zr      2.52580     10.48920     10.48920        -0.131618     -0.055746     -0.073581
Zr     18.45260     10.48920     10.48920         0.107593     -0.035408      0.129640
Pd     12.62656      8.21725      9.72420         0.119317     -0.269279      0.080493
Pd      6.87429      9.60798     10.51557        -0.067191      0.017445     -0.004958
Pd      6.89875     11.79571     11.97112        -0.007843     -0.010460     -0.006984
Pd     12.26539     13.57849      7.29335         0.033390     -0.037017      0.078566
Pd     12.17334      7.95703      7.03879        -0.105412     -0.087925      0.069086
Pd      8.58983      7.42863      6.97260        -0.166042      0.071487      0.047371
Pd     11.64707     11.53444      5.68566        -0.142425     -0.002674     -0.006996
Pd     14.54778      8.84258      7.85879        -0.033450     -0.108787     -0.019531
Pd      9.93097     11.78271      7.80698         0.039105      0.109880      0.037658
Pd      7.16777      7.10408     11.97688        -0.157070      0.091150      0.005888
Pd      6.43564      7.83316      8.44823         0.049298     -0.036752      0.039687
Pd      7.26915      9.21628     13.48741        -0.004586     -0.046971      0.041292
Pd     11.27719      6.05860      9.21500         0.124576      0.055303      0.111218
Pd     10.03621      9.61027      6.25465        -0.168867      0.014895     -0.034863
Pd      9.12235     13.84381      9.28551        -0.018572      0.116902     -0.020653
Pd     10.80678      7.06547     11.57665         0.149949     -0.057244     -0.199104
Pd     10.37672      9.11285      8.87424        -0.565514     -0.110523     -0.003297
Pd      9.23435     11.41620     10.40932         0.179460     -0.017546      0.048293
Pd      8.80941      7.25334      9.66046         0.133771     -0.031538      0.043242
Pd      9.02171      7.24560     13.75911        -0.025123     -0.040056      0.231289
Pd      9.16391      9.06987     11.59945         0.136635      0.153141     -0.089027
Pd     12.39465     10.60539      8.11020         0.070569      0.068087     -0.023350
Pd      6.94746     12.09050      9.27729        -0.041205     -0.026621     -0.056740
Pd      8.05045      9.95439      8.15829         0.210843     -0.169798     -0.073762
Pd     13.95858      6.31872      8.48605        -0.023166      0.004415     -0.032764
Pd     13.29592      7.93017     12.22842        -0.047028      0.150351     -0.001496
Pd      9.15570     11.24801     13.21960         0.265450      0.092267     -0.041347
Pd     14.10841     12.46912      8.79434         0.087890     -0.011349     -0.107995
Pd     13.20766     10.57869     12.83695         0.095780      0.087698      0.204461
Pd     14.23190     10.19676     10.30084         0.175547      0.089641     -0.026153
Pd     11.58486     10.30126     10.89517        -0.306471      0.123299     -0.007128
Pd     11.55707     12.89620      9.73588        -0.108786     -0.066950      0.076991
Pd     13.72328     12.67848     11.46072        -0.008515      0.127038      0.022855
Pd     11.28201     12.57964     12.30104        -0.207894     -0.068997      0.169436
Pd     11.43020     11.40468     14.71036        -0.032309      0.041782     -0.090878
Pd     11.14351      9.05015     13.37328        -0.057939      0.125589     -0.075151
Pd      9.49564      9.62846     15.33124        -0.065459     -0.057120     -0.047926
Pd      8.90356     13.64375     11.95422         0.053629      0.003536      0.007726
