152
# total energy = -1022.89333802 eVH     10.35389      5.87395      7.64558         0.472889      0.027504      0.875859
H     10.62451     15.10445      7.64558        -0.052086      0.036402      0.772697
H     10.62451      5.87395     13.33282         0.145984      0.117035     -0.610596
H     10.35389     15.10445     13.33282        -0.250519     -0.082387     -0.559852
H      7.64558     10.35389      5.87395         0.329658     -0.033159      0.189750
H      7.64558     10.62451     15.10445         0.619914     -0.195295     -0.139888
H     13.33282     10.62451      5.87395        -0.831997     -0.309751      0.174464
H     13.33282     10.35389     15.10445        -0.451454     -0.084387     -0.066263
H      5.87395      7.64558     10.35389         0.136836      1.101330     -0.176699
H     15.10445      7.64558     10.62451        -0.170173      0.406441     -0.086467
H      5.87395     13.33282     10.62451         0.143803     -0.410209     -0.072484
H     15.10445     13.33282     10.35389        -0.078086     -0.969392     -0.174498
H      5.87395     10.35389      7.64558         0.130429      0.044799      0.485762
H     15.10445     10.62451      7.64558         0.108286     -0.194203      0.842918
H      5.87395     10.62451     13.33282         0.260772     -0.033416     -0.394333
H     15.10445     10.35389     13.33282        -0.151821      0.013051     -0.622707
H     10.35389      7.64558      5.87395         0.060478      0.890154      0.114350
H     10.62451      7.64558     15.10445         0.025862      0.538819     -0.146673
H     10.62451     13.33282      5.87395         0.044326     -0.594635      0.187331
H     10.35389     13.33282     15.10445        -0.257172     -0.896931     -0.110868
H      7.64558      5.87395     10.35389         0.520805      0.050587     -0.127421
H      7.64558     15.10445     10.62451         0.918233     -0.213615      0.272844
H     13.33282      5.87395     10.62451        -0.439890      0.185124     -0.059393
H     13.33282     15.10445     10.35389        -0.994214     -0.105867      0.245455
H     12.45634     12.45634     19.01126         0.265562      0.257671     -0.225250
H     19.01126     19.01126     19.01126        -0.247507     -0.235080     -0.262162
H     19.01126     12.45634     12.45634        -0.240184      0.271020      0.239341
H     12.45634     19.01126     12.45634         0.211627     -0.281900      0.252742
C     10.35284      5.61067      6.59456        -0.112576     -0.448919     -0.356861
C     10.62556     15.36773      6.59456         0.022837      0.350916     -1.156102
C     10.62556      5.61067     14.38384        -0.032418     -0.214415      0.731812
C     10.35284     15.36773     14.38384         0.165447      0.781971      0.167744
C      6.59456     10.35284      5.61067        -0.406609     -0.039384     -0.176531
C      6.59456     10.62556     15.36773        -0.793333      0.154700      0.350431
C     14.38384     10.62556      5.61067         0.575720      0.290753     -0.379129
C     14.38384     10.35284     15.36773         0.723933     -0.119275      0.430423
C      5.61067      6.59456     10.35284        -0.420359     -0.723770      0.294402
C     15.36773      6.59456     10.62556         0.196080     -0.466528      0.047481
C      5.61067     14.38384     10.62556        -0.249337      0.382344     -0.027043
C     15.36773     14.38384     10.35284         0.408804      0.135077      0.165952
C      5.61067     10.35284      6.59456        -0.307194     -0.016880     -0.887155
C     15.36773     10.62556      6.59456         0.579286     -0.170144     -1.238060
C      5.61067     10.62556     14.38384        -0.449187      0.006318      0.856742
C     15.36773     10.35284     14.38384         0.518367     -0.183785      1.244926
C     10.35284      6.59456      5.61067        -0.040641     -0.927469     -0.657382
C     10.62556      6.59456     15.36773         0.042109     -0.637427      0.287147
C     10.62556     14.38384      5.61067         0.050865      1.222401     -0.680358
C     10.35284     14.38384     15.36773         0.109151      0.608320      0.647450
C      6.59456      5.61067     10.35284        -0.199089     -0.880343      0.126952
C      6.59456     15.36773     10.62556        -1.710398      0.486452      0.049387
C     14.38384      5.61067     10.62556         0.591047     -0.230381     -0.007573
C     14.38384     15.36773     10.35284         0.115954      0.565546     -0.244941
C     10.40319      3.19606      7.29314         0.014794      0.895339     -0.256354
C     10.35913      4.25547      6.23373        -0.056307     -0.374671      0.600525
C      0.08601      7.29314      7.29314        -0.009111     -0.242120     -0.470177
C      0.13007      6.23373      6.23373         0.003962      0.115232      0.207318
C      0.08601      3.19606      3.19606        -0.016758      0.650284      0.185965
C      0.13007      4.25547      4.25547        -0.088864     -0.198391     -0.170542
C     10.40319      7.29314      3.19606        -0.002699     -0.695460      0.526023
C     10.35913      6.23373      4.25547        -0.014485      0.492276     -0.432618
C      7.29314     10.40319      3.19606        -0.337838      0.023762      0.876506
C      6.23373     10.35913      4.25547         0.212642      0.013740     -0.143001
C      7.29314      0.08601      7.29314        -0.310657     -0.045504     -0.280441
C      6.23373      0.13007      6.23373         0.273203     -0.057936      0.300824
C      3.19606      0.08601      3.19606         0.453525     -0.051423      1.274970
C      4.25547      0.13007      4.25547        -0.113894     -0.028340     -0.462482
C      3.19606     10.40319      7.29314         0.700642      0.013863     -0.266731
C      4.25547     10.35913      6.23373        -0.136308      0.031109      0.104039
C      3.19606      7.29314     10.40319         0.608622     -1.272570      0.022532
C      4.25547      6.23373     10.35913        -0.706605      0.853080      0.055226
C      7.29314      7.29314      0.08601        -0.650666     -0.174604     -0.021333
C      6.23373      6.23373      0.13007         0.174651      0.266281     -0.007054
C      3.19606      3.19606      0.08601         0.242412      0.254000     -0.019062
C      4.25547      4.25547      0.13007        -0.056800     -0.037021      0.010975
C      7.29314      3.19606     10.40319        -0.370901      0.816154      0.014312
C      6.23373      4.25547     10.35913         0.889047     -0.155796      0.007614
O     10.43466      3.58206      8.50569        -0.049564      0.036308      0.326894
O     10.54374     17.39634      8.50569        -0.024517     -0.179936      0.600313
O     10.54374      3.58206     12.47271         0.054204      0.060201     -0.323156
O     10.43466     17.39634     12.47271        -0.023059     -0.125929     -0.584834
O      8.50569     10.43466      3.58206         0.373478     -0.025619     -0.017786
O      8.50569     10.54374     17.39634         0.471623      0.052376     -0.142333
O     12.47271     10.54374      3.58206        -0.299587      0.046141     -0.067981
O     12.47271     10.43466     17.39634        -0.851979      0.019056     -0.227190
O      3.58206      8.50569     10.43466         0.045588      0.931645      0.037458
O     17.39634      8.50569     10.54374        -0.041015      0.339991      0.077884
O      3.58206     12.47271     10.54374         0.062769     -0.422817      0.064426
O     17.39634     12.47271     10.43466        -0.171550     -0.789214      0.023160
O      3.58206     10.43466      8.50569        -0.055888     -0.066754      0.225453
O     17.39634     10.54374      8.50569        -0.136433      0.043560      0.463973
O      3.58206     10.54374     12.47271        -0.010809     -0.050853     -0.884357
O     17.39634     10.43466     12.47271        -0.198220      0.045830     -0.771553
O     10.43466      8.50569      3.58206         0.045752      0.679683      0.189430
O     10.54374      8.50569     17.39634         0.053884      0.440361     -0.080955
O     10.54374     12.47271      3.58206        -0.007700     -0.736537      0.225868
O     10.43466     12.47271     17.39634         0.047069     -0.848813     -0.272133
O      8.50569      3.58206     10.43466         0.485822      0.070448     -0.037785
O      8.50569     17.39634     10.54374         0.651401     -0.252559     -0.060302
O     12.47271      3.58206     10.54374        -0.482733      0.163123      0.039544
O     12.47271     17.39634     10.43466        -0.526293     -0.034588     -0.028101
O     11.90042     11.90042     19.56718        -0.303796     -0.312107      0.264450
O     19.56718     19.56718     19.56718         0.286193      0.272307      0.320929
O     19.56718     11.90042     11.90042         0.276953     -0.330267     -0.243673
O     11.90042     19.56718     11.90042        -0.231456      0.289896     -0.241840
O      9.45224      1.03696      9.45224        -0.075341      0.047772     -0.066721
O      1.03696      9.45224      9.45224         0.051653     -0.146477     -0.060296
O      1.03696      1.03696      1.03696         0.039413      0.036139      0.188462
O      9.45224      9.45224      1.03696        -0.042329     -0.091852      0.123029
Zr     10.48920      2.52580     10.48920        -0.006290     -0.075449     -0.026332
Zr     10.48920     18.45260     10.48920         0.061113      0.306579     -0.071014
Zr     10.48920     10.48920      2.52580        -0.092669      0.010551     -0.376306
Zr     10.48920     10.48920     18.45260        -0.135629     -0.148712      0.332191
Zr      2.52580     10.48920     10.48920        -0.360556      0.312618     -0.451409
Zr     18.45260     10.48920     10.48920         0.247790      0.030470     -0.271042
Pd      9.03052     10.24627     13.32961        -0.011117     -0.014926      0.005953
Pd     10.57880      9.71792     10.94743         0.001969     -0.007671     -0.028319
Pd     13.77096      8.53557     12.68850        -0.002205      0.005119     -0.012863
Pd     11.00172     11.06266     15.00948        -0.003613     -0.017381      0.003924
Pd     12.86865     11.17496     13.00862         0.017595      0.007603      0.019901
Pd     15.00057     10.94587     11.34043        -0.000031      0.017376     -0.008333
Pd      6.64999      7.45271     12.34355        -0.003234      0.025036      0.000296
Pd      9.23677      7.27264     10.09504         0.005060      0.015494     -0.029055
Pd      9.27194      7.59652     12.77759         0.005231     -0.009213     -0.022919
Pd     11.70403      7.28936     11.45804         0.000198      0.000725     -0.014089
Pd     11.43317      7.99144      8.85670         0.026508     -0.003201     -0.015405
Pd      7.26264     11.83365     11.94759         0.008722      0.001475     -0.010839
Pd      8.91565     14.67369      9.33606         0.040014      0.009061      0.021463
Pd      8.41508     12.64610     14.32116        -0.007365     -0.008555      0.000183
Pd     13.56460     14.11605      8.53894         0.088499      0.024255     -0.046274
Pd     11.01979     13.35129      8.53306         0.079233      0.039459      0.041924
Pd     14.10457     11.54645      8.92810        -0.000246      0.021405     -0.011064
Pd      8.62521     14.10103     12.10211         0.010884     -0.006906      0.002978
Pd     12.23987     13.71031     14.03271        -0.004784      0.003814      0.004755
Pd     11.16858     14.42501     11.16875         0.032791     -0.014135      0.050239
Pd     14.04383     13.56099     12.16708        -0.008342      0.016179     -0.000215
Pd     12.30643     12.13728     10.67106         0.007217     -0.025009      0.015797
Pd     12.69274     12.36410      6.70490         0.011179      0.032122     -0.016118
Pd     13.70346      8.94137      7.94209         0.028481      0.002910     -0.007737
Pd      6.87575      8.47458      8.84339         0.005819      0.003760     -0.006084
Pd      5.52760      9.95526     11.22860        -0.001543      0.022948     -0.046542
Pd      9.17821      9.74010      8.31040         0.023926     -0.027515     -0.019759
Pd      8.81460      7.25113      7.43072        -0.030973     -0.022023     -0.027637
Pd      9.53463     12.08534     10.41895         0.025443      0.003819      0.003560
Pd     11.56880     10.71337      8.54163         0.011159      0.011313     -0.026555
Pd     11.28580      9.20679      6.43537         0.037388     -0.015776     -0.012653
Pd      9.94165     11.52371      6.37048         0.026823     -0.023808     -0.007399
Ir     11.34909      9.11216     13.33095        -0.003774      0.009262     -0.027805
Ir     13.08581      9.49806     10.39915         0.014819      0.004384     -0.014423
Ir     10.52904     12.34250     12.71031        -0.002899     -0.019165      0.013119
Ir      7.17429     10.99115      9.49016         0.058621      0.021811     -0.039179
Ir      8.45075     12.46134      8.16547         0.054402      0.005422      0.004182
Ir      8.06730      9.29812     11.11070         0.020427     -0.003109      0.001927
