114
# total energy = -848.61344011 eVH     10.35402      5.87591      7.65072        -0.000287      0.010396      0.003106
H     10.62438     15.10249      7.65072         0.000287     -0.010396      0.003106
H     10.62438      5.87591     13.32768         0.000287      0.010396     -0.003106
H     10.35402     15.10249     13.32768        -0.000287     -0.010396     -0.003106
H      7.65072     10.35402      5.87591         0.003106     -0.000287      0.010396
H      7.65072     10.62438     15.10249         0.003106      0.000287     -0.010396
H     13.32768     10.62438      5.87591        -0.003106      0.000287      0.010396
H     13.32768     10.35402     15.10249        -0.003106     -0.000287     -0.010396
H      5.87591      7.65072     10.35402         0.010396      0.003106     -0.000287
H     15.10249      7.65072     10.62438        -0.010396      0.003106      0.000287
H      5.87591     13.32768     10.62438         0.010396     -0.003106      0.000287
H     15.10249     13.32768     10.35402        -0.010396     -0.003106     -0.000287
H      5.87591     10.35402      7.65072         0.010396     -0.000287      0.003106
H     15.10249     10.62438      7.65072        -0.010396      0.000287      0.003106
H      5.87591     10.62438     13.32768         0.010396      0.000287     -0.003106
H     15.10249     10.35402     13.32768        -0.010396     -0.000287     -0.003106
H     10.35402      7.65072      5.87591        -0.000287      0.003106      0.010396
H     10.62438      7.65072     15.10249         0.000287      0.003106     -0.010396
H     10.62438     13.32768      5.87591         0.000287     -0.003106      0.010396
H     10.35402     13.32768     15.10249        -0.000287     -0.003106     -0.010396
H      7.65072      5.87591     10.35402         0.003106      0.010396     -0.000287
H      7.65072     15.10249     10.62438         0.003106     -0.010396      0.000287
H     13.32768      5.87591     10.62438        -0.003106      0.010396      0.000287
H     13.32768     15.10249     10.35402        -0.003106     -0.010396     -0.000287
H     12.45807     12.45807     19.00953        -0.013507     -0.013507      0.013507
H     19.00953     19.00953     19.00953         0.013507      0.013507      0.013507
H     19.00953     12.45807     12.45807         0.013507     -0.013507     -0.013507
H     12.45807     19.00953     12.45807        -0.013507      0.013507     -0.013507
C     10.35227      5.61042      6.59330        -0.000372     -0.019682      0.016739
C     10.62613     15.36798      6.59330         0.000372      0.019682      0.016739
C     10.62613      5.61042     14.38510         0.000372     -0.019682     -0.016739
C     10.35227     15.36798     14.38510        -0.000372      0.019682     -0.016739
C      6.59330     10.35227      5.61042         0.016739     -0.000372     -0.019682
C      6.59330     10.62613     15.36798         0.016739      0.000372      0.019682
C     14.38510     10.62613      5.61042        -0.016739      0.000372     -0.019682
C     14.38510     10.35227     15.36798        -0.016739     -0.000372      0.019682
C      5.61042      6.59330     10.35227        -0.019682      0.016739     -0.000372
C     15.36798      6.59330     10.62613         0.019682      0.016739      0.000372
C      5.61042     14.38510     10.62613        -0.019682     -0.016739      0.000372
C     15.36798     14.38510     10.35227         0.019682     -0.016739     -0.000372
C      5.61042     10.35227      6.59330        -0.019682     -0.000372      0.016739
C     15.36798     10.62613      6.59330         0.019682      0.000372      0.016739
C      5.61042     10.62613     14.38510        -0.019682      0.000372     -0.016739
C     15.36798     10.35227     14.38510         0.019682     -0.000372     -0.016739
C     10.35227      6.59330      5.61042        -0.000372      0.016739     -0.019682
C     10.62613      6.59330     15.36798         0.000372      0.016739      0.019682
C     10.62613     14.38510      5.61042         0.000372     -0.016739     -0.019682
C     10.35227     14.38510     15.36798        -0.000372     -0.016739      0.019682
C      6.59330      5.61042     10.35227         0.016739     -0.019682     -0.000372
C      6.59330     15.36798     10.62613         0.016739      0.019682      0.000372
C     14.38510      5.61042     10.62613        -0.016739     -0.019682      0.000372
C     14.38510     15.36798     10.35227        -0.016739      0.019682     -0.000372
C     10.40437      3.19596      7.29324        -0.010272      0.016901     -0.016901
C     10.36027      4.25389      6.23531         0.010711      0.003216     -0.003216
C      0.08483      7.29324      7.29324         0.010272     -0.016901     -0.016901
C      0.12893      6.23531      6.23531        -0.010711     -0.003216     -0.003216
C      0.08483      3.19596      3.19596         0.010272      0.016901      0.016901
C      0.12893      4.25389      4.25389        -0.010711      0.003216      0.003216
C     10.40437      7.29324      3.19596        -0.010272     -0.016901      0.016901
C     10.36027      6.23531      4.25389         0.010711     -0.003216      0.003216
C      7.29324     10.40437      3.19596        -0.016901     -0.010272      0.016901
C      6.23531     10.36027      4.25389        -0.003216      0.010711      0.003216
C      7.29324      0.08483      7.29324        -0.016901      0.010272     -0.016901
C      6.23531      0.12893      6.23531        -0.003216     -0.010711     -0.003216
C      3.19596      0.08483      3.19596         0.016901      0.010272      0.016901
C      4.25389      0.12893      4.25389         0.003216     -0.010711      0.003216
C      3.19596     10.40437      7.29324         0.016901     -0.010272     -0.016901
C      4.25389     10.36027      6.23531         0.003216      0.010711     -0.003216
C      3.19596      7.29324     10.40437         0.016901     -0.016901     -0.010272
C      4.25389      6.23531     10.36027         0.003216     -0.003216      0.010711
C      7.29324      7.29324      0.08483        -0.016901     -0.016901      0.010272
C      6.23531      6.23531      0.12893        -0.003216     -0.003216     -0.010711
C      3.19596      3.19596      0.08483         0.016901      0.016901      0.010272
C      4.25389      4.25389      0.12893         0.003216      0.003216     -0.010711
C      7.29324      3.19596     10.40437        -0.016901      0.016901     -0.010272
C      6.23531      4.25389     10.36027        -0.003216      0.003216      0.010711
O     10.43283      3.58359      8.51349        -0.009089     -0.028341      0.007209
O     10.54557     17.39481      8.51349         0.009089      0.028341      0.007209
O     10.54557      3.58359     12.46491         0.009089     -0.028341     -0.007209
O     10.43283     17.39481     12.46491        -0.009089      0.028341     -0.007209
O      8.51349     10.43283      3.58359         0.007209     -0.009089     -0.028341
O      8.51349     10.54557     17.39481         0.007209      0.009089      0.028341
O     12.46491     10.54557      3.58359        -0.007209      0.009089     -0.028341
O     12.46491     10.43283     17.39481        -0.007209     -0.009089      0.028341
O      3.58359      8.51349     10.43283        -0.028341      0.007209     -0.009089
O     17.39481      8.51349     10.54557         0.028341      0.007209      0.009089
O      3.58359     12.46491     10.54557        -0.028341     -0.007209      0.009089
O     17.39481     12.46491     10.43283         0.028341     -0.007209     -0.009089
O      3.58359     10.43283      8.51349        -0.028341     -0.009089      0.007209
O     17.39481     10.54557      8.51349         0.028341      0.009089      0.007209
O      3.58359     10.54557     12.46491        -0.028341      0.009089     -0.007209
O     17.39481     10.43283     12.46491         0.028341     -0.009089     -0.007209
O     10.43283      8.51349      3.58359        -0.009089      0.007209     -0.028341
O     10.54557      8.51349     17.39481         0.009089      0.007209      0.028341
O     10.54557     12.46491      3.58359         0.009089     -0.007209     -0.028341
O     10.43283     12.46491     17.39481        -0.009089     -0.007209      0.028341
O      8.51349      3.58359     10.43283         0.007209     -0.028341     -0.009089
O      8.51349     17.39481     10.54557         0.007209      0.028341      0.009089
O     12.46491      3.58359     10.54557        -0.007209     -0.028341      0.009089
O     12.46491     17.39481     10.43283        -0.007209      0.028341     -0.009089
O     11.89669     11.89669     19.57091        -0.001151     -0.001151      0.001151
O     19.57091     19.57091     19.57091         0.001151      0.001151      0.001151
O     19.57091     11.89669     11.89669         0.001151     -0.001151     -0.001151
O     11.89669     19.57091     11.89669        -0.001151      0.001151     -0.001151
O      9.44970      1.03950      9.44970        -0.023113      0.023113     -0.023113
O      1.03950      9.44970      9.44970         0.023113     -0.023113     -0.023113
O      1.03950      1.03950      1.03950         0.023113      0.023113      0.023113
O      9.44970      9.44970      1.03950        -0.023113     -0.023113      0.023113
Zr     10.48920      2.52946     10.48920        -0.000000     -0.043330     -0.000000
Zr     10.48920     18.44894     10.48920        -0.000000      0.043330     -0.000000
Zr     10.48920     10.48920      2.52946        -0.000000     -0.000000     -0.043330
Zr     10.48920     10.48920     18.44894        -0.000000     -0.000000      0.043330
Zr      2.52946     10.48920     10.48920        -0.043330     -0.000000     -0.000000
Zr     18.44894     10.48920     10.48920         0.043330     -0.000000     -0.000000
