152
# total energy = -1001.94434091 eVH     10.35389      5.87395      7.64558         0.091138      0.052144      1.444829
H     10.62451     15.10445      7.64558         0.026010     -0.003499      1.070901
H     10.62451      5.87395     13.33282         0.292924      0.055453     -1.249138
H     10.35389     15.10445     13.33282        -0.192825     -0.169513     -0.943719
H      7.64558     10.35389      5.87395         1.063888      0.469674     -0.305473
H      7.64558     10.62451     15.10445         0.600763      0.188077      0.020056
H     13.33282     10.62451      5.87395        -1.178827      0.468922     -0.290309
H     13.33282     10.35389     15.10445        -0.600411     -0.093293      0.004764
H      5.87395      7.64558     10.35389        -0.537339      2.201517      0.651759
H     15.10445      7.64558     10.62451         0.231415      1.505323     -0.131327
H      5.87395     13.33282     10.62451        -0.222947     -1.092627     -0.392251
H     15.10445     13.33282     10.35389         0.152528     -1.203875     -0.338355
H      5.87395     10.35389      7.64558        -1.288300      0.461809      1.536973
H     15.10445     10.62451      7.64558         0.496804      0.486316      1.446534
H      5.87395     10.62451     13.33282        -1.058900      0.497091     -1.234149
H     15.10445     10.35389     13.33282         0.990313     -0.078172     -1.100333
H     10.35389      7.64558      5.87395         0.392931      1.056798     -0.064495
H     10.62451      7.64558     15.10445         0.208641      0.576136     -0.097844
H     10.62451     13.33282      5.87395        -0.607256     -1.261996     -0.248942
H     10.35389     13.33282     15.10445        -0.092023     -0.463273     -0.145330
H      7.64558      5.87395     10.35389         0.707902     -0.149568      0.078845
H      7.64558     15.10445     10.62451         0.587005     -0.124934     -0.146058
H     13.33282      5.87395     10.62451        -0.825963      0.045278      0.007811
H     13.33282     15.10445     10.35389        -0.433151     -0.079776     -0.056062
H     12.45634     12.45634     19.01126         0.253945      0.234172     -0.251852
H     19.01126     19.01126     19.01126        -0.250386     -0.246853     -0.243678
H     19.01126     12.45634     12.45634        -0.262032      0.266908      0.228484
H     12.45634     19.01126     12.45634         0.266269     -0.271462      0.219527
C     10.35284      5.61067      6.59456        -0.071046     -0.911197     -1.433869
C     10.62556     15.36773      6.59456        -0.200440      0.642582     -0.904729
C     10.62556      5.61067     14.38384        -0.289883     -0.401663      1.577480
C     10.35284     15.36773     14.38384         0.165482      0.252197      0.983287
C      6.59456     10.35284      5.61067        -2.010212      0.169573     -1.310960
C      6.59456     10.62556     15.36773        -0.951376      0.134375      0.692335
C     14.38384     10.62556      5.61067         1.895574      0.142411     -1.059652
C     14.38384     10.35284     15.36773         0.994622     -0.010615      0.558430
C      5.61067      6.59456     10.35284        -0.720925     -1.758402      0.125958
C     15.36773      6.59456     10.62556         0.401545     -0.924891     -0.085448
C      5.61067     14.38384     10.62556        -0.221261      1.210546      0.047635
C     15.36773     14.38384     10.35284         0.246737      1.353248      0.040809
C      5.61067     10.35284      6.59456        -0.581923      0.023797     -1.991963
C     15.36773     10.62556      6.59456         0.631994      0.203655     -1.377233
C      5.61067     10.62556     14.38384        -0.018813     -0.051431      1.721102
C     15.36773     10.35284     14.38384        -0.003691     -0.016297      1.646376
C     10.35284      6.59456      5.61067         0.057345     -1.184355     -0.853855
C     10.62556      6.59456     15.36773         0.119157     -0.508611      0.548864
C     10.62556     14.38384      5.61067         0.123238      1.248899     -0.633151
C     10.35284     14.38384     15.36773        -0.027366      0.443669      0.396181
C      6.59456      5.61067     10.35284        -0.451207     -1.191117      0.048180
C      6.59456     15.36773     10.62556        -0.899369      0.721684     -0.029716
C     14.38384      5.61067     10.62556         0.767596     -0.849958     -0.169107
C     14.38384     15.36773     10.35284         0.425873      0.589228     -0.028864
C     10.40319      3.19606      7.29314        -0.031201      0.232530     -0.698555
C     10.35913      4.25547      6.23373        -0.053399     -0.565810      0.152913
C      0.08601      7.29314      7.29314        -0.001982     -0.347417     -0.318505
C      0.13007      6.23373      6.23373         0.009528      0.381040      0.252820
C      0.08601      3.19606      3.19606         0.029010      0.519891      0.556221
C      0.13007      4.25547      4.25547         0.014388     -0.509979     -0.464160
C     10.40319      7.29314      3.19606        -0.058716     -0.864278      0.250599
C     10.35913      6.23373      4.25547        -0.004896      0.301879     -0.544539
C      7.29314     10.40319      3.19606        -0.789215     -0.025591      0.074869
C      6.23373     10.35913      4.25547         0.371104     -0.040983     -0.437143
C      7.29314      0.08601      7.29314        -0.367594     -0.047158     -0.259565
C      6.23373      0.13007      6.23373         0.409124     -0.153111      0.335602
C      3.19606      0.08601      3.19606         0.992251     -0.015442      0.207907
C      4.25547      0.13007      4.25547        -0.490030     -0.212449     -0.555774
C      3.19606     10.40319      7.29314         0.264435     -0.007877     -0.225055
C      4.25547     10.35913      6.23373        -0.277211     -0.025108      0.408293
C      3.19606      7.29314     10.40319         0.267848     -0.429982     -0.000191
C      4.25547      6.23373     10.35913        -0.823372      0.153979      0.065835
C      7.29314      7.29314      0.08601        -0.410671     -0.326564      0.003913
C      6.23373      6.23373      0.13007         0.657134      0.177026      0.030284
C      3.19606      3.19606      0.08601         0.746318      0.305445      0.015306
C      4.25547      4.25547      0.13007        -0.406276     -0.549740      0.005331
C      7.29314      3.19606     10.40319        -0.322035      0.386855      0.012289
C      6.23373      4.25547     10.35913         0.425224     -0.425946      0.037008
O     10.43466      3.58206      8.50569         0.080595      0.222595      0.651274
O     10.54374     17.39634      8.50569         0.013630     -0.173795      0.451625
O     10.54374      3.58206     12.47271         0.098864      0.156281     -0.529731
O     10.43466     17.39634     12.47271        -0.023071     -0.071334     -0.335817
O      8.50569     10.43466      3.58206         0.666344     -0.131115      0.224659
O      8.50569     10.54374     17.39634         0.533414      0.005115     -0.220335
O     12.47271     10.54374      3.58206        -0.834033      0.059900      0.267118
O     12.47271     10.43466     17.39634        -0.460953     -0.000710     -0.207176
O      3.58206      8.50569     10.43466         0.170241      0.574714     -0.017367
O     17.39634      8.50569     10.54374        -0.154207      0.467418      0.040461
O      3.58206     12.47271     10.54374         0.077030     -0.375350      0.027696
O     17.39634     12.47271     10.43466        -0.175697     -0.511184     -0.023409
O      3.58206     10.43466      8.50569         0.179280     -0.018525      0.384300
O     17.39634     10.54374      8.50569        -0.162393      0.052540      0.401756
O      3.58206     10.54374     12.47271        -0.008556      0.048858     -0.189859
O     17.39634     10.43466     12.47271        -0.050132     -0.007248     -0.185032
O     10.43466      8.50569      3.58206        -0.098840      0.698651      0.148622
O     10.54374      8.50569     17.39634         0.006789      0.523360     -0.185921
O     10.54374     12.47271      3.58206         0.036215     -0.496882      0.052121
O     10.43466     12.47271     17.39634        -0.027959     -0.385228     -0.084974
O      8.50569      3.58206     10.43466         0.559058      0.136700     -0.032985
O      8.50569     17.39634     10.54374         0.578249     -0.193735      0.048962
O     12.47271      3.58206     10.54374        -0.738777      0.197062      0.042994
O     12.47271     17.39634     10.43466        -0.510047     -0.139099     -0.021259
O     11.90042     11.90042     19.56718        -0.293257     -0.251426      0.298982
O     19.56718     19.56718     19.56718         0.297998      0.303247      0.295537
O     19.56718     11.90042     11.90042         0.319184     -0.301504     -0.217018
O     11.90042     19.56718     11.90042        -0.308851      0.329459     -0.196383
O      9.45224      1.03696      9.45224        -0.023276      0.100959     -0.042214
O      1.03696      9.45224      9.45224         0.059069     -0.024383     -0.048578
O      1.03696      1.03696      1.03696         0.056498      0.100250      0.114391
O      9.45224      9.45224      1.03696        -0.057369     -0.040449      0.142695
Zr     10.48920      2.52580     10.48920        -0.204960     -0.295494     -0.037324
Zr     10.48920     18.45260     10.48920         0.090133      0.103880     -0.114120
Zr     10.48920     10.48920      2.52580        -0.035066      0.057580     -0.365884
Zr     10.48920     10.48920     18.45260        -0.008725     -0.059393      0.175679
Zr      2.52580     10.48920     10.48920        -0.106901     -0.117993     -0.105923
Zr     18.45260     10.48920     10.48920         0.092666      0.003339     -0.108976
Pd     11.74689      8.62158     10.21650        -0.180654     -0.053730      0.035916
Pd      6.98808     10.23897     10.28969         0.133843     -0.214298      0.006565
Pd      7.25156     12.61879     11.65661        -0.158164      0.082968      0.115294
Pd     11.79528     13.22355      7.34200         0.160206      0.113538     -0.036403
Pd     11.39102      8.37868      7.45494         0.061824     -0.143992     -0.182493
Pd      8.81918      7.06808      7.48738         0.073633      0.173231     -0.276704
Pd     11.40355     10.90833      5.88304         0.156391      0.013998      0.307846
Pd     13.44597      9.80005      7.59853         0.227354     -0.475180      0.131965
Pd      9.31836     11.83008      7.25506        -0.029748     -0.071901      0.181611
Pd      7.08447      7.82669     11.79560        -0.121713     -0.051456     -0.148017
Pd      6.84507      7.70979      8.90230         0.259175      0.279278     -0.437480
Pd      7.43497     10.17891     12.80781         0.122943     -0.046537      0.388456
Pd     11.55923      6.15570      8.99212        -0.144793     -0.063743      0.128004
Pd      9.29399      9.35353      5.88131         0.082742      0.079708      0.256605
Pd      9.21266     14.14056      8.68004         0.199491     -0.075467      0.041796
Pd     11.50920      6.25372     11.63711        -0.001178      0.171819      0.151326
Pd      9.55672      9.29155      8.97069        -0.308725      0.203851      0.015917
Pd      9.21674     11.80719     10.05242         0.161695     -0.125013      0.073330
Pd      9.34711      7.06206     10.29265        -0.073355     -0.080723     -0.110189
Pd      9.19655      7.17747     13.06754         0.124063     -0.010299      0.233277
Pd      9.46434      9.44931     11.53616        -0.232551      0.058185     -0.028373
Pd     11.47188     11.03022      8.77093         0.157137     -0.041048     -0.090563
Pd      7.01684     12.58843      8.72624         0.031592     -0.181351      0.082929
Pd      7.51121      9.95410      7.82942         0.435074     -0.145500      0.055830
Pd     13.85796      7.52025      8.90006         0.108978      0.033452     -0.040763
Pd     13.69381      7.92205     11.85825         0.337940     -0.147204      0.436416
Pd      9.42770     11.98526     12.89753        -0.206400     -0.097028      0.102854
Pd     13.88848     12.47943      8.68361        -0.001316     -0.253626      0.128808
Pd     13.50143     10.44041     12.71023        -0.078350     -0.182037      0.168603
Pd     13.86052     10.18167     10.13803         0.149812     -0.046147      0.132755
Pd     11.45607     11.15755     11.39620         0.160609     -0.087433      0.044920
Pd     11.53792     13.47275     10.01607         0.031522      0.075177     -0.279297
Pd     13.71029     12.65253     11.39939         0.076321      0.109105      0.024060
Pd     11.66198     13.53269     12.76321         0.018508      0.144301      0.204567
Pd     11.54085     11.26537     14.23480         0.013143      0.085778      0.258174
Pd     11.49570      8.71759     12.99006         0.343576     -0.073951      0.135808
Pd      9.45777      9.58291     14.38432        -0.105256      0.023336      0.246259
Pd      9.39864     14.26142     11.34418         0.038910     -0.092436      0.156841
