26
# total energy = -205.61055991 eVC      0.70376      1.25130      7.50000        -0.003947      0.005792      0.000000
C     10.79532      6.56631      7.50000         0.005189      0.006199      0.000000
C      0.73792     11.42980      7.50000        -0.004330     -0.010707      0.000000
C     11.53039      5.33412      7.50000         0.003947     -0.005792      0.000000
C      1.43883      0.01911      7.50000        -0.005189     -0.006199     -0.000000
C     11.49623     -4.84438      7.50000         0.004330      0.010707     -0.000000
C     10.79634     -3.65079      7.50000        -0.009218      0.018081      0.000000
C     10.85620      4.12552      7.50000        -0.012619     -0.028473      0.000000
C      2.82781      0.04259      7.50000         0.058940      0.010307     -0.000000
C      1.43781     10.23621      7.50000         0.009218     -0.018081      0.000000
C      1.37795      2.45990      7.50000         0.012619      0.028473      0.000000
C      9.40634      6.54283      7.50000        -0.058940     -0.010307     -0.000000
N      7.76628      0.25891      7.50000        -0.011972      0.007533      0.000000
N      4.46787      6.32652      7.50000         0.011972     -0.007533      0.000000
N      4.01088      0.08453      7.50000        -0.070467     -0.006454      0.000000
N     10.22947     -2.61210      7.50000         0.007253      0.010483     -0.000000
N     10.29552      3.08335      7.50000         0.010711      0.010372      0.000000
N      8.22327      6.50089      7.50000         0.070467      0.006454      0.000000
N      2.00468      9.19752      7.50000        -0.007253     -0.010483     -0.000000
N      1.93863      3.50207      7.50000        -0.010711     -0.010372      0.000000
Ir      2.98913      7.53185      7.50000         0.009807      0.022442      0.000000
Ir      2.98004      5.13162      7.50000        -0.004197     -0.023864     -0.000000
Ir      6.29538      6.40832      7.50000         0.016553      0.004559     -0.000000
Ir      9.24502     -0.94643      7.50000        -0.009807     -0.022442      0.000000
Ir      9.25411      1.45380      7.50000         0.004197      0.023864     -0.000000
Ir      5.93877      0.17710      7.50000        -0.016553     -0.004559      0.000000
