152
# total energy = -1022.88752831 eVH     10.35389      5.87395      7.64558         0.472541      0.026740      0.877056
H     10.62451     15.10445      7.64558        -0.050539      0.038094      0.771774
H     10.62451      5.87395     13.33282         0.145882      0.116823     -0.610259
H     10.35389     15.10445     13.33282        -0.249186     -0.082676     -0.558477
H      7.64558     10.35389      5.87395         0.329913     -0.033438      0.189691
H      7.64558     10.62451     15.10445         0.619572     -0.194784     -0.140389
H     13.33282     10.62451      5.87395        -0.833682     -0.312446      0.173879
H     13.33282     10.35389     15.10445        -0.450035     -0.083232     -0.066803
H      5.87395      7.64558     10.35389         0.136430      1.101621     -0.176464
H     15.10445      7.64558     10.62451        -0.170192      0.405815     -0.086356
H      5.87395     13.33282     10.62451         0.143772     -0.410049     -0.072601
H     15.10445     13.33282     10.35389        -0.077777     -0.969464     -0.177475
H      5.87395     10.35389      7.64558         0.130284      0.044045      0.485798
H     15.10445     10.62451      7.64558         0.108093     -0.195062      0.839476
H      5.87395     10.62451     13.33282         0.261862     -0.033085     -0.394399
H     15.10445     10.35389     13.33282        -0.152729      0.013856     -0.622027
H     10.35389      7.64558      5.87395         0.061144      0.890329      0.112874
H     10.62451      7.64558     15.10445         0.026032      0.540087     -0.146164
H     10.62451     13.33282      5.87395         0.045903     -0.594752      0.186312
H     10.35389     13.33282     15.10445        -0.256055     -0.897527     -0.111422
H      7.64558      5.87395     10.35389         0.521794      0.049901     -0.128726
H      7.64558     15.10445     10.62451         0.919885     -0.212045      0.276126
H     13.33282      5.87395     10.62451        -0.439599      0.185195     -0.059481
H     13.33282     15.10445     10.35389        -0.999807     -0.105427      0.248539
H     12.45634     12.45634     19.01126         0.265715      0.257593     -0.225246
H     19.01126     19.01126     19.01126        -0.247376     -0.235122     -0.262182
H     19.01126     12.45634     12.45634        -0.240087      0.271059      0.239330
H     12.45634     19.01126     12.45634         0.211528     -0.282019      0.252785
C     10.35284      5.61067      6.59456        -0.111206     -0.449298     -0.361069
C     10.62556     15.36773      6.59456         0.022249      0.351744     -1.154849
C     10.62556      5.61067     14.38384        -0.032080     -0.214883      0.731329
C     10.35284     15.36773     14.38384         0.166329      0.780442      0.165731
C      6.59456     10.35284      5.61067        -0.407101     -0.039623     -0.176801
C      6.59456     10.62556     15.36773        -0.791695      0.154306      0.349938
C     14.38384     10.62556      5.61067         0.579043      0.291144     -0.377248
C     14.38384     10.35284     15.36773         0.722364     -0.119237      0.430048
C      5.61067      6.59456     10.35284        -0.420793     -0.724498      0.292420
C     15.36773      6.59456     10.62556         0.196616     -0.465557      0.047458
C      5.61067     14.38384     10.62556        -0.250930      0.382339     -0.026864
C     15.36773     14.38384     10.35284         0.408607      0.139843      0.170727
C      5.61067     10.35284      6.59456        -0.307731     -0.017184     -0.888514
C     15.36773     10.62556      6.59456         0.579535     -0.169231     -1.237143
C      5.61067     10.62556     14.38384        -0.449952      0.006494      0.862287
C     15.36773     10.35284     14.38384         0.518319     -0.183748      1.246461
C     10.35284      6.59456      5.61067        -0.039255     -0.932259     -0.658604
C     10.62556      6.59456     15.36773         0.042445     -0.639218      0.287504
C     10.62556     14.38384      5.61067         0.050297      1.224297     -0.683117
C     10.35284     14.38384     15.36773         0.109283      0.610478      0.645699
C      6.59456      5.61067     10.35284        -0.201230     -0.880839      0.127594
C      6.59456     15.36773     10.62556        -1.712649      0.487248      0.047697
C     14.38384      5.61067     10.62556         0.590458     -0.230189     -0.007654
C     14.38384     15.36773     10.35284         0.128108      0.563051     -0.245136
C     10.40319      3.19606      7.29314         0.014804      0.894871     -0.255835
C     10.35913      4.25547      6.23373        -0.056584     -0.373359      0.601306
C      0.08601      7.29314      7.29314        -0.008989     -0.241749     -0.469764
C      0.13007      6.23373      6.23373         0.003436      0.115684      0.207078
C      0.08601      3.19606      3.19606        -0.016724      0.650416      0.186037
C      0.13007      4.25547      4.25547        -0.088768     -0.198538     -0.170116
C     10.40319      7.29314      3.19606        -0.002696     -0.694370      0.525444
C     10.35913      6.23373      4.25547        -0.014495      0.492646     -0.430850
C      7.29314     10.40319      3.19606        -0.338194      0.023650      0.877805
C      6.23373     10.35913      4.25547         0.212774      0.013382     -0.143632
C      7.29314      0.08601      7.29314        -0.310165     -0.045561     -0.280372
C      6.23373      0.13007      6.23373         0.272570     -0.057915      0.299855
C      3.19606      0.08601      3.19606         0.451412     -0.051432      1.280030
C      4.25547      0.13007      4.25547        -0.114398     -0.027846     -0.462547
C      3.19606     10.40319      7.29314         0.699837      0.013856     -0.266630
C      4.25547     10.35913      6.23373        -0.135814      0.030713      0.103665
C      3.19606      7.29314     10.40319         0.608158     -1.272057      0.022836
C      4.25547      6.23373     10.35913        -0.708346      0.850476      0.054550
C      7.29314      7.29314      0.08601        -0.649684     -0.174591     -0.021459
C      6.23373      6.23373      0.13007         0.174072      0.267178     -0.007255
C      3.19606      3.19606      0.08601         0.242286      0.253589     -0.019171
C      4.25547      4.25547      0.13007        -0.056667     -0.037166      0.011258
C      7.29314      3.19606     10.40319        -0.370821      0.814680      0.014570
C      6.23373      4.25547     10.35913         0.886444     -0.157752      0.008191
O     10.43466      3.58206      8.50569        -0.049518      0.036452      0.326610
O     10.54374     17.39634      8.50569        -0.024218     -0.180038      0.600315
O     10.54374      3.58206     12.47271         0.054368      0.060093     -0.323348
O     10.43466     17.39634     12.47271        -0.023023     -0.126180     -0.584613
O      8.50569     10.43466      3.58206         0.373475     -0.025567     -0.018094
O      8.50569     10.54374     17.39634         0.471508      0.052463     -0.142407
O     12.47271     10.54374      3.58206        -0.297360      0.046619     -0.069591
O     12.47271     10.43466     17.39634        -0.851472      0.019154     -0.227186
O      3.58206      8.50569     10.43466         0.044884      0.929669      0.037631
O     17.39634      8.50569     10.54374        -0.041062      0.340399      0.077923
O      3.58206     12.47271     10.54374         0.063031     -0.422208      0.064327
O     17.39634     12.47271     10.43466        -0.171120     -0.788246      0.022763
O      3.58206     10.43466      8.50569        -0.055354     -0.066558      0.225725
O     17.39634     10.54374      8.50569        -0.136312      0.043601      0.463997
O      3.58206     10.54374     12.47271        -0.013402     -0.050439     -0.885433
O     17.39634     10.43466     12.47271        -0.198047      0.046032     -0.772125
O     10.43466      8.50569      3.58206         0.045581      0.679006      0.189386
O     10.54374      8.50569     17.39634         0.053860      0.440178     -0.081030
O     10.54374     12.47271      3.58206        -0.007818     -0.736474      0.225847
O     10.43466     12.47271     17.39634         0.047144     -0.847910     -0.272288
O      8.50569      3.58206     10.43466         0.486148      0.070806     -0.037903
O      8.50569     17.39634     10.54374         0.650567     -0.252010     -0.060110
O     12.47271      3.58206     10.54374        -0.482888      0.163224      0.039539
O     12.47271     17.39634     10.43466        -0.526191     -0.034840     -0.028358
O     11.90042     11.90042     19.56718        -0.303780     -0.312105      0.264521
O     19.56718     19.56718     19.56718         0.286278      0.272411      0.320985
O     19.56718     11.90042     11.90042         0.276991     -0.330328     -0.243662
O     11.90042     19.56718     11.90042        -0.230982      0.289976     -0.241747
O      9.45224      1.03696      9.45224        -0.075197      0.047832     -0.066733
O      1.03696      9.45224      9.45224         0.052017     -0.146221     -0.060151
O      1.03696      1.03696      1.03696         0.039751      0.035932      0.188460
O      9.45224      9.45224      1.03696        -0.042219     -0.091721      0.123183
Zr     10.48920      2.52580     10.48920        -0.005932     -0.075456     -0.026211
Zr     10.48920     18.45260     10.48920         0.060292      0.305849     -0.071722
Zr     10.48920     10.48920      2.52580        -0.092785      0.010606     -0.375841
Zr     10.48920     10.48920     18.45260        -0.135027     -0.149395      0.331490
Zr      2.52580     10.48920     10.48920        -0.359251      0.313246     -0.453724
Zr     18.45260     10.48920     10.48920         0.248040      0.030494     -0.271526
Pd      9.03145     10.24736     13.32898        -0.011411     -0.011383      0.005866
Pd     10.57807      9.71817     10.94990         0.002913     -0.002405     -0.029251
Pd     13.77110      8.53526     12.68990         0.000515      0.002858     -0.011510
Pd     11.00215     11.06440     15.00891        -0.003572     -0.017379      0.003758
Pd     12.86715     11.17410     13.00662         0.018844      0.007190      0.018459
Pd     15.00093     10.94373     11.34130         0.002069      0.018979     -0.007558
Pd      6.65061      7.45008     12.34351        -0.004301      0.024805      0.000393
Pd      9.23626      7.27124     10.09803         0.005738      0.013120     -0.030910
Pd      9.27170      7.59758     12.77952         0.004085     -0.010911     -0.020236
Pd     11.70423      7.28941     11.45971        -0.000029     -0.001173     -0.015363
Pd     11.43081      7.99160      8.85834         0.025147     -0.003451     -0.015220
Pd      7.26173     11.83403     11.94906         0.007777     -0.004231     -0.015014
Pd      8.91131     14.67300      9.33377         0.039358      0.006079      0.019433
Pd      8.41570     12.64686     14.32108        -0.005363     -0.008013     -0.000456
Pd     13.55543     14.11391      8.54327         0.085510      0.022634     -0.043287
Pd     11.01203     13.34740      8.52907         0.074324      0.036542      0.037822
Pd     14.10478     11.54460      8.92956         0.001310      0.022438     -0.013648
Pd      8.62400     14.10159     12.10172         0.012571     -0.007915      0.003557
Pd     12.24040     13.70937     14.03240        -0.003727      0.005139      0.004991
Pd     11.16510     14.42628     11.16344         0.031698     -0.015146      0.049385
Pd     14.04461     13.55921     12.16695        -0.009109      0.016922     -0.000174
Pd     12.30541     12.13934     10.66974         0.005397     -0.020677      0.013337
Pd     12.69147     12.36083      6.70639         0.013218      0.033118     -0.015427
Pd     13.70083      8.94129      7.94340         0.031037      0.000728     -0.009823
Pd      6.87527      8.47399      8.84353         0.007111      0.009180     -0.002418
Pd      5.52654      9.95307     11.23331         0.011310      0.023598     -0.049399
Pd      9.17607      9.74338      8.31230         0.023213     -0.028419     -0.017840
Pd      8.81814      7.25422      7.43323        -0.029994     -0.022684     -0.027409
Pd      9.53177     12.08489     10.41822         0.030336      0.002888      0.014564
Pd     11.56792     10.71222      8.54369         0.011211      0.012226     -0.024759
Pd     11.28235      9.20803      6.43690         0.037185     -0.017083     -0.014251
Pd      9.93904     11.52535      6.37018         0.026472     -0.019698     -0.002241
Ir     11.34938      9.11178     13.33272        -0.003858      0.008026     -0.022364
Ir     13.08448      9.49792     10.40098         0.014095      0.002038     -0.012966
Ir     10.52944     12.34414     12.70896        -0.009516     -0.017323      0.005514
Ir      7.16968     10.99157      9.49165         0.041437     -0.007095     -0.010494
Ir      8.44430     12.45906      8.16585         0.066137      0.023415     -0.015644
Ir      8.06665      9.29724     11.11111         0.004126      0.010265     -0.006379
