20
# total energy = -167.56747868 eVC      8.01694      1.35895      7.50000         0.091466      0.116072      0.000000
C      1.41153     -0.17128      7.50000        -0.056559      0.098225     -0.000000
C      8.34740     -5.42621      7.50000         0.109074     -0.051090     -0.000000
C      0.87348      1.14946      7.50000        -0.091466     -0.116072     -0.000000
C      7.47889      2.67969      7.50000         0.056559     -0.098225      0.000000
C      0.54303      7.93462      7.50000        -0.109074      0.051090      0.000000
C      7.70239     -4.17949      7.50000        -0.129991      0.160114      0.000000
C      7.17181      0.24570      7.50000        -0.021087     -0.042763     -0.000000
C      2.78590     -0.45701      7.50000         0.167848     -0.072686     -0.000000
C      1.18803      6.68790      7.50000         0.129991     -0.160114      0.000000
C      1.71861      2.26271      7.50000         0.021087      0.042763      0.000000
C      6.10452      2.96542      7.50000        -0.167848      0.072686      0.000000
N      6.76508     -3.45815      7.50000         0.241078     -0.147748      0.000000
N      6.46565     -0.69763      7.50000         0.077071      0.099505     -0.000000
N      3.73344     -1.16418      7.50000        -0.187989      0.182160     -0.000000
N      2.12534      5.96656      7.50000        -0.241078      0.147748      0.000000
N      2.42477      3.20604      7.50000        -0.077071     -0.099505      0.000000
N      5.15698      3.67259      7.50000         0.187989     -0.182160     -0.000000
Ir      5.26322     -2.29261      7.50000        -0.110862     -0.122338      0.000000
Ir      3.62720      4.80102      7.50000         0.110862      0.122338      0.000000
