152
# total energy = -1005.95882220 eVH     10.35389      5.87395      7.64558         0.212676      0.048617      0.614609
H     10.62451     15.10445      7.64558        -0.104694     -0.150325      0.531838
H     10.62451      5.87395     13.33282         0.493874      0.123105     -0.601124
H     10.35389     15.10445     13.33282         0.063241     -0.185263     -0.532961
H      7.64558     10.35389      5.87395         0.364686      0.030329      0.172890
H      7.64558     10.62451     15.10445         0.683341      0.469936     -0.044459
H     13.33282     10.62451      5.87395        -0.514347      0.399118      0.078126
H     13.33282     10.35389     15.10445        -0.790141     -0.082425     -0.008911
H      5.87395      7.64558     10.35389         0.273308      0.981173     -0.106020
H     15.10445      7.64558     10.62451        -0.100123      0.483999      0.279244
H      5.87395     13.33282     10.62451         0.153477     -0.694927     -0.168166
H     15.10445     13.33282     10.35389        -0.006844     -1.048049     -0.318367
H      5.87395     10.35389      7.64558         0.235861      0.052021      0.512297
H     15.10445     10.62451      7.64558        -0.118785      0.419006      0.786672
H      5.87395     10.62451     13.33282         0.147730      0.349433     -0.687609
H     15.10445     10.35389     13.33282        -0.045303     -0.062179     -0.698033
H     10.35389      7.64558      5.87395         0.328101      1.085251      0.011307
H     10.62451      7.64558     15.10445         0.525012      0.529713     -0.117258
H     10.62451     13.33282      5.87395        -0.405109     -0.828376      0.204045
H     10.35389     13.33282     15.10445        -0.040356     -0.433399     -0.221600
H      7.64558      5.87395     10.35389         0.853372      0.073871     -0.263121
H      7.64558     15.10445     10.62451         0.825496     -0.203411     -0.013544
H     13.33282      5.87395     10.62451        -0.780632      0.187215      0.591996
H     13.33282     15.10445     10.35389        -0.432048     -0.104568     -0.131548
H     12.45634     12.45634     19.01126         0.236822      0.269400     -0.239995
H     19.01126     19.01126     19.01126        -0.261115     -0.241123     -0.262289
H     19.01126     12.45634     12.45634        -0.267901      0.267264      0.220595
H     12.45634     19.01126     12.45634         0.233139     -0.259186      0.273599
C     10.35284      5.61067      6.59456        -0.405869     -0.676951      0.061111
C     10.62556     15.36773      6.59456         0.067740      0.365517     -0.308820
C     10.62556      5.61067     14.38384        -0.329704     -0.388653     -0.268307
C     10.35284     15.36773     14.38384        -0.004306      0.312490      0.530292
C      6.59456     10.35284      5.61067        -0.335945     -0.003771     -0.271547
C      6.59456     10.62556     15.36773        -0.242801     -0.216229      0.784001
C     14.38384     10.62556      5.61067        -0.217975     -0.398458     -0.527542
C     14.38384     10.35284     15.36773         0.959409     -0.070260      0.239796
C      5.61067      6.59456     10.35284        -0.546520     -0.049114     -0.165926
C     15.36773      6.59456     10.62556         0.550841      0.000559     -0.248316
C      5.61067     14.38384     10.62556        -0.308137      0.982002      0.077979
C     15.36773     14.38384     10.35284         0.277762      1.047332      0.053549
C      5.61067     10.35284      6.59456        -0.210320     -0.090812     -0.612454
C     15.36773     10.62556      6.59456         0.433500     -0.256054      0.115044
C      5.61067     10.62556     14.38384        -0.672219     -0.349087     -0.120748
C     15.36773     10.35284     14.38384         0.386869     -0.062292      1.022682
C     10.35284      6.59456      5.61067        -0.222946     -0.406902     -0.624085
C     10.62556      6.59456     15.36773        -0.266011      0.143408      0.452215
C     10.62556     14.38384      5.61067         0.208118      1.052103     -0.336544
C     10.35284     14.38384     15.36773         0.007456      0.561601      0.406604
C      6.59456      5.61067     10.35284        -0.066034     -0.885437      0.279115
C      6.59456     15.36773     10.62556        -1.000292      0.269588      0.082628
C     14.38384      5.61067     10.62556         0.470054     -0.543605     -0.376779
C     14.38384     15.36773     10.35284         0.212679      0.451797     -0.090551
C     10.40319      3.19606      7.29314         0.016332      0.666856     -0.486213
C     10.35913      4.25547      6.23373         0.088896     -0.659774      0.013994
C      0.08601      7.29314      7.29314        -0.043002     -0.407572     -0.324865
C      0.13007      6.23373      6.23373        -0.025906      0.097295      0.568705
C      0.08601      3.19606      3.19606        -0.004393      1.307780      0.286990
C      0.13007      4.25547      4.25547         0.051697     -0.777239     -0.171041
C     10.40319      7.29314      3.19606         0.011552     -0.312041      0.305889
C     10.35913      6.23373      4.25547         0.022814      0.019132     -0.788931
C      7.29314     10.40319      3.19606        -0.287661      0.021602      0.560723
C      6.23373     10.35913      4.25547         0.176117      0.058731     -0.075581
C      7.29314      0.08601      7.29314        -0.505347     -0.066363     -0.377193
C      6.23373      0.13007      6.23373         0.681222     -0.064665      0.470874
C      3.19606      0.08601      3.19606         0.806155     -0.029708      0.583173
C      4.25547      0.13007      4.25547        -0.592122     -0.087313     -0.538896
C      3.19606     10.40319      7.29314         0.471129     -0.009122     -0.736182
C      4.25547     10.35913      6.23373        -0.311310      0.071848      0.190893
C      3.19606      7.29314     10.40319         0.298414     -1.296598      0.046743
C      4.25547      6.23373     10.35913        -0.900111      0.105684      0.133580
C      7.29314      7.29314      0.08601        -0.409796     -0.379638     -0.024907
C      6.23373      6.23373      0.13007         0.453032      0.222372     -0.010266
C      3.19606      3.19606      0.08601         0.481316      0.372835     -0.042461
C      4.25547      4.25547      0.13007        -0.153948     -0.645801     -0.036815
C      7.29314      3.19606     10.40319        -0.335973      0.449974      0.072369
C      6.23373      4.25547     10.35913         0.311141     -0.679372      0.148844
O     10.43466      3.58206      8.50569        -0.015486      0.109991      0.507578
O     10.54374     17.39634      8.50569         0.034035     -0.175735      0.495707
O     10.54374      3.58206     12.47271         0.048967     -0.098597     -0.178811
O     10.43466     17.39634     12.47271        -0.039259     -0.184291     -0.525876
O      8.50569     10.43466      3.58206         0.284097     -0.011173      0.018839
O      8.50569     10.54374     17.39634         0.621331      0.036901     -0.144127
O     12.47271     10.54374      3.58206        -0.752375      0.088759      0.095849
O     12.47271     10.43466     17.39634        -0.440729      0.022093     -0.110143
O      3.58206      8.50569     10.43466         0.158621      1.046554     -0.032986
O     17.39634      8.50569     10.54374        -0.161069      0.543982      0.076145
O      3.58206     12.47271     10.54374         0.088178     -0.374031      0.050923
O     17.39634     12.47271     10.43466        -0.155929     -0.545169     -0.023405
O      3.58206     10.43466      8.50569         0.081869     -0.070433      0.583320
O     17.39634     10.54374      8.50569        -0.111888      0.067381      0.528254
O      3.58206     10.54374     12.47271         0.022254      0.041716     -0.511216
O     17.39634     10.43466     12.47271        -0.227813     -0.039580     -0.621167
O     10.43466      8.50569      3.58206        -0.038708      0.443762      0.139031
O     10.54374      8.50569     17.39634         0.050965      0.534724     -0.157863
O     10.54374     12.47271      3.58206         0.015253     -1.037598      0.189171
O     10.43466     12.47271     17.39634         0.037816     -0.709390     -0.173483
O      8.50569      3.58206     10.43466         0.520597      0.148158     -0.056157
O      8.50569     17.39634     10.54374         0.486105     -0.194739      0.014477
O     12.47271      3.58206     10.54374        -0.624223      0.223260      0.008302
O     12.47271     17.39634     10.43466        -0.231990      0.063820     -0.049762
O     11.90042     11.90042     19.56718        -0.241578     -0.288471      0.248975
O     19.56718     19.56718     19.56718         0.309948      0.295582      0.302845
O     19.56718     11.90042     11.90042         0.295837     -0.264016     -0.233532
O     11.90042     19.56718     11.90042        -0.240454      0.293077     -0.322286
O      9.45224      1.03696      9.45224        -0.017778      0.090054     -0.072569
O      1.03696      9.45224      9.45224         0.092287     -0.090808     -0.131481
O      1.03696      1.03696      1.03696         0.094346      0.187935      0.052663
O      9.45224      9.45224      1.03696        -0.106501     -0.106608      0.036483
Zr     10.48920      2.52580     10.48920        -0.129222     -0.285832     -0.034592
Zr     10.48920     18.45260     10.48920        -0.070016      0.213816      0.066044
Zr     10.48920     10.48920      2.52580        -0.019067     -0.401738     -0.268437
Zr     10.48920     10.48920     18.45260        -0.272787     -0.099746      0.317350
Zr      2.52580     10.48920     10.48920        -0.384408      0.235047      0.256888
Zr     18.45260     10.48920     10.48920         0.234171      0.000946     -0.218137
Pd     13.57933      8.92535      9.26481         0.007197      0.011450     -0.010765
Pd      5.63921      9.87203     10.17268        -0.002264      0.009250     -0.016839
Pd      6.79138     11.85535     11.68075        -0.005267      0.002457      0.006059
Pd     12.10952     13.02660      7.34035        -0.013120      0.000566      0.012465
Pd     11.90531      7.75154      7.43194        -0.003367     -0.003160      0.008092
Pd      8.30291      6.93186      6.59462         0.003558     -0.020558     -0.000771
Pd     10.72261     11.18483      5.62668        -0.010822     -0.000185      0.001925
Pd     14.42553      8.55243      6.77672        -0.004020     -0.001013     -0.006916
Pd      9.69399     11.75289      8.07866        -0.005455     -0.007692      0.008523
Pd      6.77222      6.80913     12.30875         0.007482     -0.004165      0.000367
Pd      6.47188      7.86650      8.20981         0.011239      0.032930     -0.032868
Pd      6.52980      8.50207     14.34129         0.011293      0.003546     -0.003111
Pd     11.50445      6.51432      9.86656        -0.003933      0.002438      0.016536
Pd      9.56876      9.23462      7.12078        -0.010286     -0.008917      0.000212
Pd      8.99672     14.00086      9.29477        -0.004471     -0.007410      0.010213
Pd      9.51864      7.36293     11.73168        -0.013933      0.003195     -0.000615
Pd     10.58731      8.98994      9.67735         0.007369     -0.000980     -0.000655
Pd      9.33076     11.52616     10.65771         0.001311     -0.004428      0.011349
Pd      8.91407      7.03573      9.15891        -0.002468      0.002085     -0.001429
Pd      8.55322      6.57200     14.23687         0.002657      0.008651      0.009045
Pd      7.68150      9.33042     11.94776        -0.005274      0.005450      0.005211
Pd     11.99833     10.39735      7.75522        -0.005439     -0.002709     -0.007712
Pd      7.14295     12.02494      9.02965        -0.003172     -0.003169      0.005379
Pd      8.09221      9.59116      9.29996         0.008921      0.001361      0.015450
Pd     14.02865      6.46768      8.50131        -0.000876      0.005746      0.004979
Pd     12.53008      8.33541     11.60388         0.020448      0.010600     -0.007853
Pd      8.76596     11.58890     13.39041         0.000141     -0.007385      0.003584
Pd     13.91009     11.95315      8.96494        -0.004885     -0.002568      0.000828
Pd     12.94724     10.66377     13.04776         0.003838      0.004429      0.002134
Pd     14.79514     10.43604     11.09104         0.000144      0.002158      0.000424
Pd     12.09223     10.87572     10.51787        -0.003575      0.005435      0.002171
Pd     11.45005     13.32098      9.89920        -0.004011      0.006438      0.013866
Pd     13.60429     12.90877     11.62686        -0.002102      0.001986      0.002099
Pd     11.12354     12.59551     12.51009        -0.002791      0.000440      0.006003
Pd     10.95129     11.05387     14.80213         0.007025      0.011954      0.002852
Pd     10.49037      9.77369     12.36537         0.010868     -0.012281      0.005858
Pd      9.07648      9.13964     14.39794         0.013674      0.005285      0.014638
Pd      8.84063     13.84495     11.98003        -0.009365     -0.004723      0.011417
