15
# total energy = -96.95439453 eVC      1.44457      0.00072     10.00000        -0.880684     -0.013420      0.000000
C      5.85473      4.23432     10.00000         0.880684      0.013420     -0.000000
C      6.57640     -2.94980     10.00000         0.461683     -0.811413      0.000000
C      0.72290      7.18483     10.00000        -0.461683      0.811413      0.000000
C      6.57747      2.98342     10.00000         0.440818      0.792490      0.000000
C      0.72183      1.25162     10.00000        -0.440818     -0.792490      0.000000
O      1.36582      2.36813     10.00000         0.308818      0.517120      0.000000
O      5.93348      1.86691     10.00000        -0.308818     -0.517120      0.000000
O      4.56510      4.23377     10.00000        -0.551104      0.005328      0.000000
O      2.73420      0.00126     10.00000         0.551104     -0.005328      0.000000
O      1.36753      6.06915     10.00000         0.289284     -0.518245      0.000000
O      5.93177     -1.83412     10.00000        -0.289284      0.518245     -0.000000
Au      3.64965      2.11752     10.00000         0.000000     -0.000000      0.000000
Au      3.64965     -2.10059     10.00000         0.000000     -0.000000      0.000000
Au      0.00000      4.21811     10.00000         0.000000     -0.000000      0.000000
