152
# total energy = -1109.38380622 eVH     10.35389      5.87395      7.64558        -0.329323     -1.000566      1.567605
H     10.62451     15.10445      7.64558         0.256620      0.051729      0.867639
H     10.62451      5.87395     13.33282        -0.076362     -1.338237     -1.739680
H     10.35389     15.10445     13.33282        -0.638355      0.612569     -0.498066
H      7.64558     10.35389      5.87395         0.500171     -0.490691      0.032639
H      7.64558     10.62451     15.10445         0.359880     -0.283917      0.067370
H     13.33282     10.62451      5.87395        -0.419085      0.429263     -0.020160
H     13.33282     10.35389     15.10445        -0.468853      0.255622      0.122031
H      5.87395      7.64558     10.35389        -0.009176      0.305407      0.071902
H     15.10445      7.64558     10.62451         0.235139      0.388189     -0.019014
H      5.87395     13.33282     10.62451        -0.320205     -0.431496      0.430520
H     15.10445     13.33282     10.35389         0.056000     -0.303799     -0.409901
H      5.87395     10.35389      7.64558        -0.181037     -0.433848      1.696203
H     15.10445     10.62451      7.64558         0.134499      0.266298      0.874328
H      5.87395     10.62451     13.33282        -0.109809     -0.265370     -1.158333
H     15.10445     10.35389     13.33282         0.477099      0.600763     -1.289577
H     10.35389      7.64558      5.87395        -0.328217      0.770527     -0.476848
H     10.62451      7.64558     15.10445        -0.021924      0.731404      0.305936
H     10.62451     13.33282      5.87395         0.803140     -1.200713     -0.268980
H     10.35389     13.33282     15.10445         0.260498     -0.472836      0.019415
H      7.64558      5.87395     10.35389         0.998727      0.040641     -0.079518
H      7.64558     15.10445     10.62451         2.157453      0.721123      0.319268
H     13.33282      5.87395     10.62451        -2.094776     -0.586552     -0.238575
H     13.33282     15.10445     10.35389        -0.822206     -0.070330     -0.261802
H     12.45634     12.45634     19.01126         0.267425      0.261008     -0.231976
H     19.01126     19.01126     19.01126        -0.267328     -0.249428     -0.240995
H     19.01126     12.45634     12.45634        -0.277805      0.293229      0.184273
H     12.45634     19.01126     12.45634         0.257030     -0.251895      0.237726
C     10.35284      5.61067      6.59456         0.031317     -0.259716     -2.106354
C     10.62556     15.36773      6.59456         0.209644      0.525064     -0.851177
C     10.62556      5.61067     14.38384         0.017193     -0.122137      2.154416
C     10.35284     15.36773     14.38384         0.152023     -0.027749      1.933365
C      6.59456     10.35284      5.61067        -1.162439     -0.205316     -0.995544
C      6.59456     10.62556     15.36773        -0.603000     -0.130435      0.750710
C     14.38384     10.62556      5.61067         0.578737     -0.154318     -0.707404
C     14.38384     10.35284     15.36773         1.108825      0.135164      0.943766
C      5.61067      6.59456     10.35284        -0.995459     -0.632365     -0.067759
C     15.36773      6.59456     10.62556         1.754143     -0.228123      0.033530
C      5.61067     14.38384     10.62556        -1.406134      0.205824     -0.023858
C     15.36773     14.38384     10.35284         0.551906      0.302040     -0.042334
C      5.61067     10.35284      6.59456        -0.284678      0.456875     -1.924409
C     15.36773     10.62556      6.59456         0.314451     -0.001933     -0.684856
C      5.61067     10.62556     14.38384        -0.486011      0.241403      1.563359
C     15.36773     10.35284     14.38384         0.135284     -0.421812      1.823258
C     10.35284      6.59456      5.61067        -0.139850     -1.631386     -1.196359
C     10.62556      6.59456     15.36773        -0.055275     -1.153942      1.264893
C     10.62556     14.38384      5.61067        -0.501736      1.985046     -0.603202
C     10.35284     14.38384     15.36773        -0.187521      1.632259      0.261066
C      6.59456      5.61067     10.35284        -1.032587     -0.296459      0.050977
C      6.59456     15.36773     10.62556        -1.594616      0.296068     -0.334620
C     14.38384      5.61067     10.62556         1.263174     -0.129865     -0.187003
C     14.38384     15.36773     10.35284         0.347688      0.183290      0.105312
C     10.40319      3.19606      7.29314         0.012091      0.323410     -0.153960
C     10.35913      4.25547      6.23373         0.031504     -0.364603      0.467272
C      0.08601      7.29314      7.29314        -0.048258     -0.375418     -0.432828
C      0.13007      6.23373      6.23373        -0.126043      0.825882      0.056421
C      0.08601      3.19606      3.19606        -0.125571      1.515003      0.170767
C      0.13007      4.25547      4.25547        -0.191608     -0.425951     -1.317304
C     10.40319      7.29314      3.19606         0.039418     -0.453201      0.096262
C     10.35913      6.23373      4.25547         0.163004      0.323628     -0.373486
C      7.29314     10.40319      3.19606        -1.770508      0.027946      0.240137
C      6.23373     10.35913      4.25547         0.507321      0.021351     -0.549639
C      7.29314      0.08601      7.29314        -0.388088      0.018367     -0.283028
C      6.23373      0.13007      6.23373         0.465125     -0.024458      0.265100
C      3.19606      0.08601      3.19606         0.582118      0.011157      0.344314
C      4.25547      0.13007      4.25547        -0.416638     -0.028901     -0.488261
C      3.19606     10.40319      7.29314         0.370912      0.056982     -0.464607
C      4.25547     10.35913      6.23373        -0.739671      0.111966      0.439821
C      3.19606      7.29314     10.40319         0.405898     -0.396136      0.003290
C      4.25547      6.23373     10.35913        -0.038139      0.661302      0.095275
C      7.29314      7.29314      0.08601        -0.627333     -0.372986     -0.023908
C      6.23373      6.23373      0.13007         0.097219      1.313831      0.105249
C      3.19606      3.19606      0.08601         0.701433      0.410826      0.002914
C      4.25547      4.25547      0.13007        -0.671825     -1.116519     -0.090576
C      7.29314      3.19606     10.40319        -0.377394      0.365555     -0.001099
C      6.23373      4.25547     10.35913         0.534358     -0.308821      0.186213
O     10.43466      3.58206      8.50569        -0.043781      0.199188      0.293585
O     10.54374     17.39634      8.50569         0.041838     -0.211994      0.468596
O     10.54374      3.58206     12.47271         0.098546     -0.019807     -0.069824
O     10.43466     17.39634     12.47271        -0.038568     -0.112004     -0.237825
O      8.50569     10.43466      3.58206         0.935676      0.199213      0.413388
O      8.50569     10.54374     17.39634         0.565450      0.068328     -0.211692
O     12.47271     10.54374      3.58206        -0.469512     -0.002304      0.184057
O     12.47271     10.43466     17.39634        -0.506148     -0.070164     -0.176718
O      3.58206      8.50569     10.43466         0.150933      0.546309     -0.044651
O     17.39634      8.50569     10.54374        -0.168394      0.612853      0.048457
O      3.58206     12.47271     10.54374         0.158710     -0.608207      0.023621
O     17.39634     12.47271     10.43466        -0.184961     -0.565830     -0.004753
O      3.58206     10.43466      8.50569         0.227170     -0.088442      0.457266
O     17.39634     10.54374      8.50569        -0.164824      0.029016      0.430756
O      3.58206     10.54374     12.47271         0.171740     -0.005800     -0.420151
O     17.39634     10.43466     12.47271         0.090268     -0.060464     -0.033503
O     10.43466      8.50569      3.58206        -0.005219      0.361158      0.190294
O     10.54374      8.50569     17.39634         0.077385      0.484889     -0.210060
O     10.54374     12.47271      3.58206        -0.233744     -0.930027      0.348072
O     10.43466     12.47271     17.39634        -0.072129     -0.453579     -0.241180
O      8.50569      3.58206     10.43466         0.507382      0.181203     -0.018364
O      8.50569     17.39634     10.54374         0.580139     -0.207663      0.029104
O     12.47271      3.58206     10.54374        -0.671554      0.266136      0.038281
O     12.47271     17.39634     10.43466        -0.506782     -0.181753     -0.042072
O     11.90042     11.90042     19.56718        -0.325207     -0.309831      0.258206
O     19.56718     19.56718     19.56718         0.329118      0.303084      0.286449
O     19.56718     11.90042     11.90042         0.269067     -0.296902     -0.131496
O     11.90042     19.56718     11.90042        -0.315232      0.298406     -0.243901
O      9.45224      1.03696      9.45224        -0.052879      0.065033     -0.041631
O      1.03696      9.45224      9.45224         0.042502     -0.064514     -0.073732
O      1.03696      1.03696      1.03696         0.054096      0.121876      0.110364
O      9.45224      9.45224      1.03696        -0.128591     -0.073371      0.127357
Zr     10.48920      2.52580     10.48920         0.094093     -0.137844     -0.155266
Zr     10.48920     18.45260     10.48920        -0.021928      0.168704     -0.023200
Zr     10.48920     10.48920      2.52580         0.469801     -0.282156     -0.236178
Zr     10.48920     10.48920     18.45260        -0.037743     -0.056420      0.203587
Zr      2.52580     10.48920     10.48920        -0.087905      0.119156      0.001016
Zr     18.45260     10.48920     10.48920         0.137997     -0.107700     -0.314544
Ir     11.98703     12.43703     10.46538         0.065579     -0.136126     -0.198868
Ir     10.69144      7.33503     10.40711         0.090491     -0.003514     -0.037298
Ir      8.37682      7.47511     11.71052         0.002133      0.034987     -0.112308
Ir      7.24291     11.79305      7.73581         0.107885     -0.095871      0.015614
Ir     11.44963     12.02808      7.14241        -0.066480      0.231571      0.067781
Ir     13.47595      8.93097      7.57665        -0.139503     -0.154667      0.153022
Ir     12.39372     13.91079      8.42540         0.158291     -0.080261     -0.053699
Ir      9.59104     11.26913      5.57341         0.078845     -0.091245      0.036136
Ir      9.02456     13.42382      7.10736         0.185818      0.064687      0.047745
Ir      9.02090      9.72414      7.59037         0.075609     -0.043386     -0.047471
Ir     12.93836      7.21837     11.81829         0.084494      0.000523      0.157684
Ir     12.95753      7.04920      9.08015         0.303918     -0.342891      0.173938
Ir     10.65971      7.55882     12.92955         0.119108     -0.003992      0.014372
Ir     13.44518     11.47032      8.69601         0.164541     -0.101707      0.002290
Ir     11.31292      9.60929      6.32173        -0.051740      0.061863     -0.117265
Ir      6.72983      9.47522      9.13785         0.212916     -0.067612     -0.063972
Ir     14.14167     11.47828     11.46630         0.060929     -0.101141     -0.009621
Ir     11.40928      9.78245      8.96638         0.046370      0.296765     -0.020853
Ir      9.11567      9.58330     10.31452        -0.218820     -0.257938     -0.078180
Ir     13.64011      9.36165     10.17548        -0.007665     -0.029118      0.054953
Ir     13.62808      9.35192     12.81210        -0.175657     -0.241429     -0.032885
Ir     11.39376      9.61483     11.58519         0.212754      0.100691      0.241377
Ir      9.79301     11.75898      9.03204         0.051927      0.510500     -0.127529
Ir      8.38248      7.54316      8.98330         0.337204      0.024718      0.019285
Ir     10.71968      7.60705      7.92525         0.280620     -0.054421      0.027419
Ir      8.99920      9.56053     13.06857         0.003689     -0.132766     -0.009475
Ir      7.53879     14.05975      9.00788         0.127676     -0.088536     -0.009493
Ir     10.92648     13.97085     12.08673        -0.246806      0.231401     -0.045501
Ir     10.11052     14.17957      9.59423        -0.001918     -0.184777     -0.032408
Ir      9.71657     11.67528     11.74892        -0.008177      0.375161     -0.071587
Ir      7.48912     11.76623     10.30772        -0.034049     -0.023636     -0.147872
Ir      8.40400     13.85622     11.68697         0.112992     -0.027950     -0.073570
Ir      7.50436     11.80437     12.97393        -0.087214     -0.008376     -0.003554
Ir      9.82936     11.63618     14.32926        -0.015379      0.103917      0.052080
Ir     13.45248     13.84436     12.18650         0.231338      0.034006     -0.090315
Ir     12.10320     11.83422     13.02425        -0.094569     -0.119728      0.193567
Ir     11.41784      9.68681     14.25159         0.118237      0.063609     -0.123071
Ir      6.82661      9.61339     11.64641         0.144183      0.043128     -0.049723
