152
# total energy = -1091.40824115 eVH     10.35389      5.87395      7.64558         0.957910     -1.947879      1.625597
H     10.62451     15.10445      7.64558        -0.554869      1.150506      1.880309
H     10.62451      5.87395     13.33282         0.887946     -0.695945     -2.084353
H     10.35389     15.10445     13.33282        -0.794357      0.751819     -1.881307
H      7.64558     10.35389      5.87395         0.381452     -0.169642      0.007535
H      7.64558     10.62451     15.10445         0.663588     -0.263473      0.161268
H     13.33282     10.62451      5.87395        -0.433255      0.031629      0.107253
H     13.33282     10.35389     15.10445        -0.635429      0.277554      0.024357
H      5.87395      7.64558     10.35389        -0.145316      1.218500      0.169425
H     15.10445      7.64558     10.62451         0.032413      0.748158     -0.020234
H      5.87395     13.33282     10.62451        -0.003816     -0.494843     -0.008186
H     15.10445     13.33282     10.35389         0.150258     -1.099840      0.069823
H      5.87395     10.35389      7.64558        -0.073145     -0.033486      0.413133
H     15.10445     10.62451      7.64558         0.180375      0.052169      0.275939
H      5.87395     10.62451     13.33282        -0.121368      0.232410     -0.838815
H     15.10445     10.35389     13.33282         0.104665     -0.269921     -0.124025
H     10.35389      7.64558      5.87395        -0.289887      0.645347     -0.204376
H     10.62451      7.64558     15.10445         0.315919      0.874468      0.355564
H     10.62451     13.33282      5.87395        -0.180422     -1.069677     -0.195465
H     10.35389     13.33282     15.10445        -0.209969     -0.969329      0.306352
H      7.64558      5.87395     10.35389         0.757048     -0.145794      0.006295
H      7.64558     15.10445     10.62451         0.860116     -0.031904     -0.094795
H     13.33282      5.87395     10.62451        -0.813880     -0.070308      0.201561
H     13.33282     15.10445     10.35389        -0.559496      0.153848     -0.006673
H     12.45634     12.45634     19.01126         0.259916      0.251611     -0.241892
H     19.01126     19.01126     19.01126        -0.258073     -0.253134     -0.239550
H     19.01126     12.45634     12.45634        -0.250630      0.265757      0.237547
H     12.45634     19.01126     12.45634         0.251690     -0.267339      0.232830
C     10.35284      5.61067      6.59456        -0.479505      0.085326     -2.265903
C     10.62556     15.36773      6.59456         0.301041     -0.133138     -2.048887
C     10.62556      5.61067     14.38384        -0.153703     -0.785192      2.173271
C     10.35284     15.36773     14.38384         0.287967      0.167916      1.881274
C      6.59456     10.35284      5.61067        -0.538564     -0.027930     -0.339650
C      6.59456     10.62556     15.36773        -0.998178     -0.027378      0.539018
C     14.38384     10.62556      5.61067         0.584664     -0.007271     -0.218253
C     14.38384     10.35284     15.36773         0.812654     -0.123257      0.274859
C      5.61067      6.59456     10.35284        -0.333553     -0.657971      0.185343
C     15.36773      6.59456     10.62556         0.334447     -1.220319     -0.000749
C      5.61067     14.38384     10.62556        -0.432981      0.947230      0.029850
C     15.36773     14.38384     10.35284         0.451747      0.842740      0.047496
C      5.61067     10.35284      6.59456        -0.633575      0.130377     -1.762039
C     15.36773     10.62556      6.59456         0.653010      0.020844     -1.893932
C      5.61067     10.62556     14.38384        -0.667649      0.074198      1.949127
C     15.36773     10.35284     14.38384         0.664963     -0.118253      1.463847
C     10.35284      6.59456      5.61067         0.077147     -1.600456     -0.917368
C     10.62556      6.59456     15.36773         0.004381     -2.050282      1.121103
C     10.62556     14.38384      5.61067         0.123935      1.595619     -0.748047
C     10.35284     14.38384     15.36773        -0.039322      2.054055      0.922093
C      6.59456      5.61067     10.35284        -0.327177     -0.848777      0.010622
C      6.59456     15.36773     10.62556        -1.578042      0.390170      0.024547
C     14.38384      5.61067     10.62556         1.960295     -0.719694     -0.093297
C     14.38384     15.36773     10.35284         0.338536      0.955066      0.005593
C     10.40319      3.19606      7.29314        -0.023838      0.625798     -0.312524
C     10.35913      4.25547      6.23373         0.100486     -0.871427      0.796019
C      0.08601      7.29314      7.29314        -0.025164     -0.672381     -0.301667
C      0.13007      6.23373      6.23373        -0.150061      0.828078      0.902034
C      0.08601      3.19606      3.19606        -0.072353      0.450803      0.317013
C      0.13007      4.25547      4.25547         0.038747     -0.913439     -0.490238
C     10.40319      7.29314      3.19606         0.038663     -0.430068      0.296994
C     10.35913      6.23373      4.25547         0.041138      0.753339     -0.587764
C      7.29314     10.40319      3.19606        -0.354714      0.020096      0.667805
C      6.23373     10.35913      4.25547         0.319471     -0.016030     -0.395628
C      7.29314      0.08601      7.29314        -0.384081      0.060947     -0.430229
C      6.23373      0.13007      6.23373         0.187245      0.096107      0.559408
C      3.19606      0.08601      3.19606         0.274475      0.024447      0.756105
C      4.25547      0.13007      4.25547        -0.473060      0.160005     -0.339010
C      3.19606     10.40319      7.29314         0.503683     -0.008018     -0.659617
C      4.25547     10.35913      6.23373        -0.361472      0.031233      0.652407
C      3.19606      7.29314     10.40319         0.317463     -0.554241     -0.010159
C      4.25547      6.23373     10.35913        -0.824147      0.318288     -0.044393
C      7.29314      7.29314      0.08601        -0.320959     -0.196036      0.000580
C      6.23373      6.23373      0.13007         0.075917      0.430783     -0.035643
C      3.19606      3.19606      0.08601         0.399559      0.147251     -0.020766
C      4.25547      4.25547      0.13007        -0.102959     -0.308035     -0.028537
C      7.29314      3.19606     10.40319        -0.409173      0.594627     -0.018896
C      6.23373      4.25547     10.35913         0.551482     -0.764543     -0.023041
O     10.43466      3.58206      8.50569        -0.009985      0.147452      0.296377
O     10.54374     17.39634      8.50569         0.020944     -0.161953      0.300838
O     10.54374      3.58206     12.47271         0.070436      0.189777     -0.344420
O     10.43466     17.39634     12.47271        -0.077916     -0.228039     -0.335247
O      8.50569     10.43466      3.58206         0.446054     -0.018466      0.104221
O      8.50569     10.54374     17.39634         0.468966      0.053035     -0.139237
O     12.47271     10.54374      3.58206        -0.369914      0.026585      0.077206
O     12.47271     10.43466     17.39634        -0.535261     -0.051743     -0.126911
O      3.58206      8.50569     10.43466         0.115493      0.528514     -0.028859
O     17.39634      8.50569     10.54374        -0.137958      0.446814      0.031333
O      3.58206     12.47271     10.54374         0.095731     -0.382220      0.050695
O     17.39634     12.47271     10.43466        -0.212264     -0.634314      0.001574
O      3.58206     10.43466      8.50569         0.219775     -0.057361      0.592559
O     17.39634     10.54374      8.50569        -0.167231      0.006095      0.474717
O      3.58206     10.54374     12.47271         0.369363     -0.079464     -0.607112
O     17.39634     10.43466     12.47271        -0.218853      0.000980     -0.617822
O     10.43466      8.50569      3.58206         0.021195      0.512458      0.266774
O     10.54374      8.50569     17.39634         0.092275      0.639939     -0.324151
O     10.54374     12.47271      3.58206         0.017541     -0.558683      0.278040
O     10.43466     12.47271     17.39634        -0.071955     -0.641008     -0.329256
O      8.50569      3.58206     10.43466         0.551650      0.156900     -0.036580
O      8.50569     17.39634     10.54374         0.464796     -0.180424      0.038460
O     12.47271      3.58206     10.54374        -0.496143      0.182007      0.003945
O     12.47271     17.39634     10.43466        -0.531955     -0.168254     -0.027500
O     11.90042     11.90042     19.56718        -0.299474     -0.301067      0.249773
O     19.56718     19.56718     19.56718         0.303694      0.296660      0.246986
O     19.56718     11.90042     11.90042         0.300855     -0.320680     -0.269238
O     11.90042     19.56718     11.90042        -0.288945      0.316292     -0.257474
O      9.45224      1.03696      9.45224        -0.046086      0.034644     -0.104406
O      1.03696      9.45224      9.45224         0.050072     -0.035774     -0.100274
O      1.03696      1.03696      1.03696         0.074221      0.041127      0.089399
O      9.45224      9.45224      1.03696        -0.056657     -0.048884      0.087184
Zr     10.48920      2.52580     10.48920        -0.105378     -0.061646      0.034931
Zr     10.48920     18.45260     10.48920         0.074611      0.076955     -0.001705
Zr     10.48920     10.48920      2.52580        -0.032936      0.031395     -0.209962
Zr     10.48920     10.48920     18.45260         0.013022      0.013051      0.258391
Zr      2.52580     10.48920     10.48920        -0.135147      0.003723     -0.084832
Zr     18.45260     10.48920     10.48920         0.183969      0.038422     -0.029728
Pd     13.43667      8.45839      7.96737        -0.206539     -0.085892      0.033859
Pd      8.77946     14.11025     12.00772         0.027809     -0.010702      0.008279
Pd     12.15894     11.15407     10.65905        -0.074482      0.263349      0.057112
Pd     14.61401     10.86011     11.76189         0.022624      0.067673     -0.009895
Pd     11.23803      9.14603      6.51233        -0.034925      0.130525      0.028642
Pd      7.28844      7.54496      8.88190        -0.160542     -0.028983     -0.191001
Ir      9.87524     11.63759     12.00000        -0.042274     -0.008978     -0.501502
Ir     13.28766      8.71894     10.65541        -0.078696     -0.188630      0.297050
Ir     12.08840     11.11970      7.98904         0.012326     -0.025870     -0.071771
Ir      8.85841     13.90537      9.25309         0.120279      0.128979      0.161008
Ir     10.97338      9.20428     12.02444        -0.274065     -0.021056     -0.152717
Ir      8.69703      9.58957      8.02602         0.088606     -0.205385     -0.145822
Ir     13.39204     12.98177      9.16728        -0.111038      0.086660     -0.083676
Ir     11.19860     13.46418      7.94004         0.118888      0.124844      0.192451
Ir     14.30258     10.60473      9.26443         0.107429     -0.086475      0.035656
Ir      9.78680      7.06195     10.74663         0.024019      0.449514     -0.266318
Ir      7.63187     12.02457      7.97888         0.150450      0.194053      0.038166
Ir      9.76324      7.36620      8.09746        -0.115041      0.436281      0.352028
Ir     11.29701     13.55682     13.19706         0.067800      0.214702     -0.082897
Ir     12.09694      6.93847     12.08757        -0.129430      0.004646      0.115323
Ir      9.82646     11.49402      9.32817         0.320800      0.332991      0.301225
Ir     13.32785      8.67021     13.41414        -0.354747      0.270838     -0.324953
Ir     11.07212      9.13004      9.36470        -0.518837     -0.085368     -0.264459
Ir     11.03670     13.62865     10.54306         0.151455     -0.159271     -0.173919
Ir     13.31224     13.20037     11.87864         0.098315     -0.044760      0.023669
Ir     12.19827     11.22962     13.29654         0.130449     -0.193114     -0.031884
Ir      9.86026     11.42078      6.71605         0.197263     -0.108914     -0.252862
Ir     11.96838      6.73732      9.48632        -0.177042      0.247945      0.086383
Ir      7.47195      7.58262     12.02270         0.084190     -0.031415      0.102068
Ir      7.64818     12.03544     10.64473         0.146654      0.457703     -0.024643
Ir     11.08116      9.35608     14.57172        -0.099858     -0.095495     -0.135950
Ir      7.54392     12.00575     13.21457         0.234291     -0.020516      0.032910
Ir      6.51534     10.09120      9.38676        -0.140096     -0.157426     -0.158496
Ir      8.68726      9.65360     13.33947        -0.033921     -0.024702     -0.094277
Ir      6.41206      9.89587     11.76240        -0.224720      0.254452      0.210912
Ir      9.46218      7.25121     13.38752        -0.124040      0.226016     -0.483695
Ir      9.85033     11.57745     14.53904         0.049132      0.034164      0.264059
Ir      8.69627      9.48841     10.69302         0.348635      0.222303     -0.124040
