152
# total energy = -1024.40976901 eVH     10.35389      5.87395      7.64558         0.479156      0.027624      0.732171
H     10.62451     15.10445      7.64558         0.058246     -0.197976      0.623951
H     10.62451      5.87395     13.33282         0.089995      0.159425     -0.562746
H     10.35389     15.10445     13.33282        -0.471929     -0.035145     -0.746244
H      7.64558     10.35389      5.87395         0.342387      0.023999      0.161105
H      7.64558     10.62451     15.10445         0.906330     -0.261110      0.036432
H     13.33282     10.62451      5.87395        -0.766752     -0.102062      0.149719
H     13.33282     10.35389     15.10445        -0.882353     -0.402253      0.191038
H      5.87395      7.64558     10.35389         0.163390      0.746044     -0.332959
H     15.10445      7.64558     10.62451        -0.138532      0.385804     -0.020704
H      5.87395     13.33282     10.62451         0.158919     -0.516267     -0.106988
H     15.10445     13.33282     10.35389        -0.093600     -1.188083      0.086538
H      5.87395     10.35389      7.64558         0.141150      0.166039      0.516696
H     15.10445     10.62451      7.64558         0.010690      0.091904      1.052121
H      5.87395     10.62451     13.33282         0.079516     -0.043048     -0.458348
H     15.10445     10.35389     13.33282        -0.165182     -0.169019     -0.461410
H     10.35389      7.64558      5.87395         0.084625      1.029740      0.233192
H     10.62451      7.64558     15.10445         0.001026      0.270311     -0.164270
H     10.62451     13.33282      5.87395        -0.097358     -0.388889      0.318126
H     10.35389     13.33282     15.10445        -0.445462     -0.593219     -0.004706
H      7.64558      5.87395     10.35389         0.515389      0.094318     -0.096120
H      7.64558     15.10445     10.62451         0.930868     -0.224281     -0.175057
H     13.33282      5.87395     10.62451        -0.593462      0.095854     -0.070027
H     13.33282     15.10445     10.35389        -0.596410     -0.058914      0.249582
H     12.45634     12.45634     19.01126         0.234810      0.279007     -0.237314
H     19.01126     19.01126     19.01126        -0.249793     -0.249220     -0.241984
H     19.01126     12.45634     12.45634        -0.266437      0.264987      0.220113
H     12.45634     19.01126     12.45634         0.237929     -0.266540      0.239102
C     10.35284      5.61067      6.59456        -0.204608     -0.700520      0.101872
C     10.62556     15.36773      6.59456        -0.047412      0.385726     -0.853049
C     10.62556      5.61067     14.38384        -0.005020     -0.053074      0.682098
C     10.35284     15.36773     14.38384         0.189847      0.693687      0.162266
C      6.59456     10.35284      5.61067        -0.342086     -0.017379     -0.302412
C      6.59456     10.62556     15.36773        -1.085577      0.260531      0.292443
C     14.38384     10.62556      5.61067         0.401007      0.374408     -0.690631
C     14.38384     10.35284     15.36773         1.026356      0.018173      0.251452
C      5.61067      6.59456     10.35284        -0.406059     -0.386665      0.368252
C     15.36773      6.59456     10.62556         0.190643     -0.497740      0.014228
C      5.61067     14.38384     10.62556        -0.198167      0.574877      0.004329
C     15.36773     14.38384     10.35284         0.338340      0.033110     -0.120927
C      5.61067     10.35284      6.59456        -0.329227     -0.083309     -1.027635
C     15.36773     10.62556      6.59456         0.900896     -0.343105     -0.989801
C      5.61067     10.62556     14.38384        -0.419760      0.027785      0.312908
C     15.36773     10.35284     14.38384         0.649643     -0.094960      1.086038
C     10.35284      6.59456      5.61067        -0.220378     -0.592038     -0.947738
C     10.62556      6.59456     15.36773         0.058062     -0.267156      0.042401
C     10.62556     14.38384      5.61067         0.072873      1.199530     -0.421131
C     10.35284     14.38384     15.36773         0.273260      0.152238      0.695218
C      6.59456      5.61067     10.35284        -0.191744     -0.741048      0.133891
C      6.59456     15.36773     10.62556        -1.218051      0.245428      0.164752
C     14.38384      5.61067     10.62556         1.052985     -0.298549      0.036678
C     14.38384     15.36773     10.35284        -0.472314      0.816947     -0.399282
C     10.40319      3.19606      7.29314        -0.032696      0.862877     -0.410605
C     10.35913      4.25547      6.23373         0.053269     -0.499423      0.551784
C      0.08601      7.29314      7.29314        -0.022637     -0.419030     -0.349398
C      0.13007      6.23373      6.23373        -0.023965      0.016304      0.102733
C      0.08601      3.19606      3.19606         0.009183      1.266889      0.191550
C      0.13007      4.25547      4.25547        -0.045936     -0.216018     -0.200931
C     10.40319      7.29314      3.19606        -0.015280     -1.055045      0.368416
C     10.35913      6.23373      4.25547         0.034041      0.469052     -0.677876
C      7.29314     10.40319      3.19606        -0.311372      0.033120      0.719550
C      6.23373     10.35913      4.25547         0.152721      0.072433     -0.106152
C      7.29314      0.08601      7.29314        -0.652940     -0.022136     -0.276940
C      6.23373      0.13007      6.23373         0.381623     -0.075987      0.527336
C      3.19606      0.08601      3.19606         1.006134     -0.005824      0.253584
C      4.25547      0.13007      4.25547        -0.156007     -0.039274     -0.526657
C      3.19606     10.40319      7.29314         0.366307     -0.012591     -0.971102
C      4.25547     10.35913      6.23373        -0.277939      0.092795      0.245950
C      3.19606      7.29314     10.40319         0.514551     -1.317197     -0.039690
C      4.25547      6.23373     10.35913        -0.539729      0.750976      0.111370
C      7.29314      7.29314      0.08601        -0.392707     -0.222923     -0.000486
C      6.23373      6.23373      0.13007         0.156432      0.143844     -0.003179
C      3.19606      3.19606      0.08601         0.256260      0.254345     -0.017054
C      4.25547      4.25547      0.13007        -0.121823     -0.054443      0.007424
C      7.29314      3.19606     10.40319        -0.391404      0.646984      0.007768
C      6.23373      4.25547     10.35913         1.097818     -0.095662      0.056004
O     10.43466      3.58206      8.50569        -0.025142      0.048471      0.448064
O     10.54374     17.39634      8.50569        -0.006572     -0.109803      0.459867
O     10.54374      3.58206     12.47271         0.039834     -0.106093     -0.131693
O     10.43466     17.39634     12.47271        -0.058461     -0.044963     -0.472206
O      8.50569     10.43466      3.58206         0.292027     -0.032211     -0.033240
O      8.50569     10.54374     17.39634         0.721365      0.025902     -0.198794
O     12.47271     10.54374      3.58206        -0.793382     -0.038140      0.151553
O     12.47271     10.43466     17.39634        -0.281711     -0.027782      0.033450
O      3.58206      8.50569     10.43466         0.158747      1.088703     -0.037675
O     17.39634      8.50569     10.54374        -0.096760      0.428471      0.057906
O      3.58206     12.47271     10.54374         0.067658     -0.399581      0.036413
O     17.39634     12.47271     10.43466        -0.160299     -0.683518     -0.008646
O      3.58206     10.43466      8.50569         0.066339     -0.068294      0.807586
O     17.39634     10.54374      8.50569        -0.060907      0.047260      0.335434
O      3.58206     10.54374     12.47271        -0.013107      0.037303     -0.240550
O     17.39634     10.43466     12.47271        -0.251902      0.002792     -0.709841
O     10.43466      8.50569      3.58206         0.118521      0.832774      0.192122
O     10.54374      8.50569     17.39634         0.032204      0.616221     -0.147860
O     10.54374     12.47271      3.58206         0.007237     -1.011744      0.178943
O     10.43466     12.47271     17.39634        -0.038722     -0.914524     -0.204685
O      8.50569      3.58206     10.43466         0.559050      0.122684     -0.015958
O      8.50569     17.39634     10.54374         0.514393     -0.198117     -0.009617
O     12.47271      3.58206     10.54374        -0.474296      0.159458      0.058002
O     12.47271     17.39634     10.43466        -0.415682      0.022959     -0.004988
O     11.90042     11.90042     19.56718        -0.265170     -0.329220      0.255240
O     19.56718     19.56718     19.56718         0.279848      0.292403      0.282318
O     19.56718     11.90042     11.90042         0.300593     -0.301296     -0.203748
O     11.90042     19.56718     11.90042        -0.267238      0.285366     -0.248894
O      9.45224      1.03696      9.45224        -0.079667      0.045401     -0.060660
O      1.03696      9.45224      9.45224         0.041900     -0.152270     -0.118858
O      1.03696      1.03696      1.03696         0.023842      0.118039      0.196888
O      9.45224      9.45224      1.03696        -0.067786     -0.086928      0.117955
Zr     10.48920      2.52580     10.48920        -0.049607     -0.118245     -0.167861
Zr     10.48920     18.45260     10.48920         0.011061      0.214872     -0.022746
Zr     10.48920     10.48920      2.52580        -0.162590     -0.187025     -0.516159
Zr     10.48920     10.48920     18.45260        -0.009444     -0.000349      0.437952
Zr      2.52580     10.48920     10.48920        -0.362410      0.293224      0.196553
Zr     18.45260     10.48920     10.48920         0.202008      0.054110     -0.201318
Pd      8.33324      9.70473     13.22447        -0.004938      0.025089      0.091295
Pd     10.49802      9.46050     10.19443         0.056875     -0.059363     -0.125526
Pd     13.05863      8.76944     12.46298         0.001434      0.009321      0.047342
Pd     10.29795     10.76973     15.04604         0.035741      0.005186      0.012411
Pd     12.83774     11.35889     13.54036        -0.011544     -0.086890      0.071992
Pd     14.85189     10.64302     11.36457         0.002494     -0.046038     -0.014389
Pd      6.86517      7.55777     12.28571         0.011116     -0.030786      0.025866
Pd      9.22157      7.20022      9.46516        -0.008731      0.011271     -0.022535
Pd      9.55941      7.55131     12.19416         0.046778     -0.066353      0.010067
Pd     11.75910      7.09891     10.81192        -0.048675     -0.004099     -0.007317
Pd     11.63435      7.83181      8.26279        -0.018395     -0.009566      0.055083
Pd      7.15744     11.68041     11.53749         0.020226      0.022664     -0.058681
Pd      9.30275     14.31381      9.27140        -0.045515      0.049002      0.008776
Pd      8.15729     12.30120     14.02699        -0.018684      0.037013     -0.008475
Pd     14.23822     14.20455      8.34615         0.014198     -0.048106     -0.000118
Pd     11.75739     13.30683      8.79774         0.000189     -0.001312     -0.000997
Pd     14.13287     11.61399      8.99498        -0.016176      0.048839     -0.003338
Pd      8.71689     13.98424     12.01536         0.007666     -0.027098      0.006889
Pd     12.22152     13.97819     13.94958        -0.002397      0.058786      0.031993
Pd     11.41946     14.13522     11.30165        -0.023406      0.028537     -0.010015
Pd     14.01044     13.30208     12.09743         0.033371      0.031984     -0.040238
Pd     12.26940     11.52408     10.88153         0.063159     -0.022913     -0.003962
Pd     13.01833     12.62752      6.58765        -0.000308     -0.046622      0.009333
Pd     13.97037      8.83827      7.57434        -0.009673      0.001311      0.010364
Pd      6.98427      8.45859      8.38037        -0.053200      0.022746      0.017362
Pd      5.55140     10.04128     10.03246        -0.010310     -0.033899      0.048790
Pd      9.40972      9.45973      7.46618        -0.013857      0.079465      0.024439
Pd      8.48405      6.98055      6.86295        -0.000838     -0.026966      0.002121
Pd      9.66019     11.94318     10.53722        -0.098828      0.013525     -0.059012
Pd     11.82135     10.61587      8.04841        -0.019393     -0.019343      0.035183
Pd     11.78906      8.92437      5.85396         0.005552      0.024457     -0.006565
Pd     10.62744     11.33726      5.74473        -0.004262     -0.001465     -0.034616
Ir     10.79342      9.81264     12.68845         0.023658      0.038237      0.097724
Ir     13.16315      9.25335      9.95415        -0.034720      0.027133     -0.050820
Ir     10.50690     12.27133     12.89034        -0.071844      0.012823      0.073052
Ir      7.75326     11.00569      9.04811         0.183217      0.066545     -0.049278
Ir      9.61406     12.06979      7.97288        -0.171381     -0.173344      0.047009
Ir      8.01381      9.20771     10.71022        -0.038933     -0.056074     -0.012091
