152
# total energy = -1004.68810497 eVH     10.35389      5.87395      7.64558        -0.033377      0.070596      0.676063
H     10.62451     15.10445      7.64558        -0.097463     -0.173377      0.542243
H     10.62451      5.87395     13.33282         0.423755      0.018915     -0.863412
H     10.35389     15.10445     13.33282         0.044406     -0.164862     -0.488210
H      7.64558     10.35389      5.87395         0.353882      0.030784      0.160910
H      7.64558     10.62451     15.10445         0.929677      0.582542      0.009062
H     13.33282     10.62451      5.87395        -0.545195      0.281649      0.057490
H     13.33282     10.35389     15.10445        -0.893768     -0.250136      0.073686
H      5.87395      7.64558     10.35389         0.283374      1.550236      0.224095
H     15.10445      7.64558     10.62451        -0.103940      0.539053      0.243188
H      5.87395     13.33282     10.62451         0.194633     -0.587826     -0.013223
H     15.10445     13.33282     10.35389         0.051961     -1.143094     -0.382320
H      5.87395     10.35389      7.64558         0.170729      0.034758      0.470062
H     15.10445     10.62451      7.64558        -0.161311      0.639585      0.955353
H      5.87395     10.62451     13.33282        -0.013014      0.553735     -1.231076
H     15.10445     10.35389     13.33282         0.023945     -0.179479     -0.758999
H     10.35389      7.64558      5.87395         0.097883      1.421565      0.064427
H     10.62451      7.64558     15.10445         0.530331      0.739055     -0.111437
H     10.62451     13.33282      5.87395        -0.367342     -0.699383      0.317414
H     10.35389     13.33282     15.10445        -0.202984     -0.489767     -0.326330
H      7.64558      5.87395     10.35389         1.051957     -0.095105     -0.147596
H      7.64558     15.10445     10.62451         0.820093     -0.189744     -0.065444
H     13.33282      5.87395     10.62451        -0.581853      0.146561      0.571978
H     13.33282     15.10445     10.35389        -0.509608     -0.061163     -0.215369
H     12.45634     12.45634     19.01126         0.262237      0.265913     -0.228382
H     19.01126     19.01126     19.01126        -0.274132     -0.259433     -0.223729
H     19.01126     12.45634     12.45634        -0.276734      0.258507      0.223514
H     12.45634     19.01126     12.45634         0.238032     -0.272675      0.257769
C     10.35284      5.61067      6.59456        -0.232875     -0.820439     -0.153782
C     10.62556     15.36773      6.59456         0.028194      0.213387     -0.380536
C     10.62556      5.61067     14.38384        -0.047403     -0.406784      0.576751
C     10.35284     15.36773     14.38384         0.001022      0.290331      0.494031
C      6.59456     10.35284      5.61067        -0.411350      0.027988     -0.237762
C      6.59456     10.62556     15.36773        -0.925836      0.154852      0.688039
C     14.38384     10.62556      5.61067         0.405520     -0.224214     -0.801704
C     14.38384     10.35284     15.36773         1.023309     -0.094264      0.295714
C      5.61067      6.59456     10.35284        -0.801644     -0.570098     -0.352359
C     15.36773      6.59456     10.62556         0.670981     -0.092745     -0.275092
C      5.61067     14.38384     10.62556        -0.215604      0.662804     -0.000209
C     15.36773     14.38384     10.35284         0.315103      1.088406      0.087288
C      5.61067     10.35284      6.59456        -0.263779      0.012728     -0.721768
C     15.36773     10.62556      6.59456         0.562273     -0.172633     -0.185718
C      5.61067     10.62556     14.38384        -0.599712     -0.021610      0.833273
C     15.36773     10.35284     14.38384         0.501668     -0.084030      1.030418
C     10.35284      6.59456      5.61067        -0.040232     -0.891390     -0.446340
C     10.62556      6.59456     15.36773         0.139495     -0.732104      0.507148
C     10.62556     14.38384      5.61067         0.084855      1.194422     -0.316388
C     10.35284     14.38384     15.36773        -0.032435      1.029537      0.515704
C      6.59456      5.61067     10.35284        -0.227718     -1.211427      0.192879
C      6.59456     15.36773     10.62556        -0.971294      0.162075      0.129745
C     14.38384      5.61067     10.62556        -0.090727     -0.454358     -0.353384
C     14.38384     15.36773     10.35284         0.216517      0.519616     -0.052018
C     10.40319      3.19606      7.29314         0.018958      1.000131     -0.480677
C     10.35913      4.25547      6.23373         0.071882     -0.614012      0.113005
C      0.08601      7.29314      7.29314        -0.031384     -0.917348     -0.181449
C      0.13007      6.23373      6.23373        -0.087292      0.265336      0.320064
C      0.08601      3.19606      3.19606         0.039513      1.305431      0.158148
C      0.13007      4.25547      4.25547        -0.035553     -0.390050     -0.318014
C     10.40319      7.29314      3.19606         0.002460     -0.468295      0.297865
C     10.35913      6.23373      4.25547         0.002895      0.099733     -0.836894
C      7.29314     10.40319      3.19606        -0.268589      0.018376      0.561347
C      6.23373     10.35913      4.25547         0.191348      0.084637     -0.106881
C      7.29314      0.08601      7.29314        -1.068975     -0.094834     -0.332422
C      6.23373      0.13007      6.23373         0.766948     -0.224388      0.398167
C      3.19606      0.08601      3.19606         1.091013     -0.028476      0.528359
C      4.25547      0.13007      4.25547        -0.650301     -0.189198     -0.477174
C      3.19606     10.40319      7.29314         0.596108      0.014898     -0.482047
C      4.25547     10.35913      6.23373        -0.256584      0.110554      0.227197
C      3.19606      7.29314     10.40319         0.346768     -1.059948      0.032410
C      4.25547      6.23373     10.35913        -1.120274      0.096813      0.158323
C      7.29314      7.29314      0.08601        -0.468548     -0.507258     -0.013576
C      6.23373      6.23373      0.13007         0.478528      0.332753      0.033222
C      3.19606      3.19606      0.08601         0.487805      0.406607     -0.030834
C      4.25547      4.25547      0.13007        -0.070546     -0.672993     -0.089049
C      7.29314      3.19606     10.40319        -0.394471      0.504236      0.061304
C      6.23373      4.25547     10.35913         0.444134     -0.747060      0.206967
O     10.43466      3.58206      8.50569        -0.025265      0.032217      0.444832
O     10.54374     17.39634      8.50569         0.062088     -0.040809      0.257637
O     10.54374      3.58206     12.47271         0.006842     -0.089480     -0.107588
O     10.43466     17.39634     12.47271        -0.036642     -0.143208     -0.521103
O      8.50569     10.43466      3.58206         0.326444     -0.020530      0.029553
O      8.50569     10.54374     17.39634         0.876746     -0.064459     -0.171736
O     12.47271     10.54374      3.58206        -0.858504      0.105196      0.079533
O     12.47271     10.43466     17.39634        -0.577871      0.026273     -0.123734
O      3.58206      8.50569     10.43466         0.183726      0.993511     -0.018273
O     17.39634      8.50569     10.54374        -0.150827      0.673385      0.050078
O      3.58206     12.47271     10.54374         0.104110     -0.530466      0.046837
O     17.39634     12.47271     10.43466        -0.161267     -0.604999     -0.029911
O      3.58206     10.43466      8.50569         0.067401     -0.071973      0.498886
O     17.39634     10.54374      8.50569         0.023928      0.100604      0.391223
O      3.58206     10.54374     12.47271         0.003600      0.033784     -0.447313
O     17.39634     10.43466     12.47271        -0.222026     -0.032992     -0.686978
O     10.43466      8.50569      3.58206        -0.042768      0.563152      0.154738
O     10.54374      8.50569     17.39634        -0.077083      0.748633     -0.216428
O     10.54374     12.47271      3.58206         0.072719     -0.960014      0.179238
O     10.43466     12.47271     17.39634         0.086636     -0.851275     -0.223592
O      8.50569      3.58206     10.43466         0.567579      0.141633     -0.053921
O      8.50569     17.39634     10.54374         0.546129     -0.149344     -0.001011
O     12.47271      3.58206     10.54374        -0.664746      0.153562      0.025322
O     12.47271     17.39634     10.43466        -0.366539     -0.002208     -0.042360
O     11.90042     11.90042     19.56718        -0.305186     -0.304537      0.229476
O     19.56718     19.56718     19.56718         0.314294      0.304464      0.217500
O     19.56718     11.90042     11.90042         0.323146     -0.268192     -0.232804
O     11.90042     19.56718     11.90042        -0.256946      0.330207     -0.295090
O      9.45224      1.03696      9.45224        -0.013870      0.070813     -0.143354
O      1.03696      9.45224      9.45224         0.065246     -0.050268     -0.160781
O      1.03696      1.03696      1.03696         0.079741      0.124992      0.065190
O      9.45224      9.45224      1.03696        -0.072466     -0.066076      0.045781
Zr     10.48920      2.52580     10.48920        -0.039069     -0.194258      0.003728
Zr     10.48920     18.45260     10.48920        -0.039962      0.103580      0.207421
Zr     10.48920     10.48920      2.52580        -0.183168     -0.437985     -0.278143
Zr     10.48920     10.48920     18.45260         0.024703      0.025191      0.474585
Zr      2.52580     10.48920     10.48920        -0.244353      0.181659      0.121441
Zr     18.45260     10.48920     10.48920         0.180962     -0.011676     -0.044238
Pd     13.23217      8.61905      9.59633         0.095773     -0.006310     -0.058225
Pd      5.96063      9.70619     10.13394        -0.000928      0.006724     -0.040847
Pd      6.90251     11.57675     11.73441         0.062858     -0.018989      0.021027
Pd     12.22924     13.12928      7.44836         0.017078      0.005026     -0.045176
Pd     12.12665      7.70180      6.96430         0.016103      0.010389      0.027492
Pd      8.43656      7.17977      6.85614        -0.014833     -0.003741     -0.035283
Pd     11.18666     11.39839      5.62459        -0.008549     -0.079160     -0.076123
Pd     14.55820      8.64299      7.18230         0.012932      0.081213      0.026792
Pd      9.90124     11.69826      8.08887         0.026917      0.152829      0.011576
Pd      6.94485      6.96428     12.15115        -0.091242     -0.060319     -0.101967
Pd      6.35591      7.49873      8.40071        -0.011496      0.012641     -0.003208
Pd      7.16206      9.08711     13.64241        -0.006398      0.041073      0.100363
Pd     11.52067      6.48283      9.23731         0.017242      0.017638      0.018829
Pd      9.93775      9.41281      6.74057         0.029389     -0.055895      0.031552
Pd      9.10561     13.94265      9.37630        -0.077352      0.024792      0.030569
Pd     10.74322      7.46031     11.47400        -0.077836     -0.074508     -0.014205
Pd     10.55313      9.14440      9.39239        -0.048536     -0.112386      0.015893
Pd      9.44944     11.45701     10.69872         0.013870     -0.077974     -0.054827
Pd      8.92016      7.08672      9.49221         0.029813     -0.089233     -0.141484
Pd      9.13268      7.37248     13.49396        -0.020217      0.020024      0.074787
Pd      8.39625      9.08935     11.27681         0.008400     -0.040592      0.079576
Pd     12.30909     10.34350      7.78305        -0.082176      0.020936     -0.093678
Pd      7.28532     12.00394      9.14316         0.028264     -0.058809      0.031230
Pd      8.06820      9.55530      8.57435         0.002068      0.075552     -0.105883
Pd     14.07339      6.34741      8.45919         0.013393      0.005696     -0.002657
Pd     13.03389      8.52094     12.23268        -0.061945      0.016172     -0.087053
Pd      8.87088     11.46662     13.43059         0.084538     -0.005153      0.050954
Pd     13.85313     11.97185      9.13831         0.029464      0.045698     -0.036682
Pd     13.10137     11.10074     13.22022         0.007714     -0.053209      0.022645
Pd     14.74982     10.35940     11.05163        -0.002833      0.033960      0.125298
Pd     12.08258     10.76702     10.75027        -0.053315     -0.010378      0.007864
Pd     11.51173     13.24897      9.95860        -0.013393      0.034569     -0.068954
Pd     13.61934     13.11767     11.65933        -0.004560     -0.010755     -0.059744
Pd     11.08746     12.74812     12.51236         0.044335     -0.013954     -0.005048
Pd     11.13207     11.50858     14.95048        -0.078369     -0.006537     -0.022929
Pd     10.75403      9.75054     12.82192        -0.107593     -0.038355     -0.007501
Pd      9.44921      9.45266     15.18166         0.033687      0.055959      0.004378
Pd      8.66223     13.73914     12.01401         0.019900     -0.135843      0.042990
