152
# total energy = -1060.19989212 eVH     10.35389      5.87395      7.64558        -0.308300      0.103390      1.086504
H     10.62451     15.10445      7.64558         0.076197     -0.064467      0.897328
H     10.62451      5.87395     13.33282        -0.265517      0.071349     -0.776529
H     10.35389     15.10445     13.33282         0.090193     -0.301534     -0.817592
H      7.64558     10.35389      5.87395         0.894534     -0.197345      0.208943
H      7.64558     10.62451     15.10445         0.310537     -0.029471     -0.062590
H     13.33282     10.62451      5.87395        -0.885162      0.209827      0.220764
H     13.33282     10.35389     15.10445        -0.283425     -0.029427     -0.061872
H      5.87395      7.64558     10.35389         0.093013      0.425393     -0.015361
H     15.10445      7.64558     10.62451        -0.039372      0.436723     -0.029742
H      5.87395     13.33282     10.62451        -0.023422     -0.955773      0.077682
H     15.10445     13.33282     10.35389        -0.081432     -0.329061      0.001530
H      5.87395     10.35389      7.64558         0.320107      0.060610      0.368035
H     15.10445     10.62451      7.64558        -0.119903     -0.159812      0.652544
H      5.87395     10.62451     13.33282        -0.055619      0.448696     -0.597696
H     15.10445     10.35389     13.33282         0.230297     -0.638017     -0.867558
H     10.35389      7.64558      5.87395        -0.022699      0.495590      0.343037
H     10.62451      7.64558     15.10445         0.348135      0.807427      0.001706
H     10.62451     13.33282      5.87395         0.152836     -0.559181      0.193331
H     10.35389     13.33282     15.10445         0.036024     -0.290216     -0.167577
H      7.64558      5.87395     10.35389         0.372773      0.113392      0.064744
H      7.64558     15.10445     10.62451         0.378985     -0.127610      0.180363
H     13.33282      5.87395     10.62451        -0.305544      0.136357     -0.014023
H     13.33282     15.10445     10.35389        -0.661365     -0.106580      0.136134
H     12.45634     12.45634     19.01126         0.260145      0.271615     -0.226157
H     19.01126     19.01126     19.01126        -0.247482     -0.268797     -0.244137
H     19.01126     12.45634     12.45634        -0.248604      0.272248      0.237464
H     12.45634     19.01126     12.45634         0.290527     -0.235305      0.234564
C     10.35284      5.61067      6.59456         0.405388     -0.425962     -1.351938
C     10.62556     15.36773      6.59456        -0.166878      0.611903     -0.652666
C     10.62556      5.61067     14.38384         0.365549     -0.287633      0.763508
C     10.35284     15.36773     14.38384        -0.200856      0.219201      1.016779
C      6.59456     10.35284      5.61067        -1.393548      0.034912     -0.227907
C      6.59456     10.62556     15.36773        -0.657084      0.064354      0.357830
C     14.38384     10.62556      5.61067         1.305271     -0.184798     -0.629803
C     14.38384     10.35284     15.36773         0.323818     -0.131362      0.348369
C      5.61067      6.59456     10.35284        -0.273102     -0.681316     -0.028682
C     15.36773      6.59456     10.62556         0.403820     -0.864377      0.026355
C      5.61067     14.38384     10.62556        -0.155215      1.183594     -0.207728
C     15.36773     14.38384     10.35284         0.507974      0.704815     -0.035464
C      5.61067     10.35284      6.59456        -0.370074     -0.104314     -0.785860
C     15.36773     10.62556      6.59456         0.410897      0.108031     -0.684257
C      5.61067     10.62556     14.38384        -0.412174     -0.163326      1.209721
C     15.36773     10.35284     14.38384         0.235180      0.224421      1.418861
C     10.35284      6.59456      5.61067        -0.070745     -0.741986     -0.553796
C     10.62556      6.59456     15.36773        -0.149302     -0.996203      0.376402
C     10.62556     14.38384      5.61067        -0.489954      0.366804     -0.742637
C     10.35284     14.38384     15.36773        -0.175554      0.777138      0.519607
C      6.59456      5.61067     10.35284        -0.565251     -0.335226      0.002631
C      6.59456     15.36773     10.62556        -0.362908      0.451910      0.062351
C     14.38384      5.61067     10.62556         0.431177     -0.303118      0.004608
C     14.38384     15.36773     10.35284         1.129491      0.491628     -0.082044
C     10.40319      3.19606      7.29314        -0.006336      0.765988     -0.319276
C     10.35913      4.25547      6.23373         0.017626     -0.372452      0.280877
C      0.08601      7.29314      7.29314        -0.024196     -0.382876     -0.501802
C      0.13007      6.23373      6.23373        -0.054083      0.884787      0.093453
C      0.08601      3.19606      3.19606        -0.008595      0.688827      0.264781
C      0.13007      4.25547      4.25547         0.045433     -0.266146     -0.547672
C     10.40319      7.29314      3.19606        -0.064944     -1.099417      0.597069
C     10.35913      6.23373      4.25547        -0.048599      0.327515     -0.184643
C      7.29314     10.40319      3.19606        -1.108334     -0.057189      0.204442
C      6.23373     10.35913      4.25547         0.382723      0.100265     -0.516989
C      7.29314      0.08601      7.29314        -0.472905      0.027914     -0.454599
C      6.23373      0.13007      6.23373         0.172896      0.120093      0.115217
C      3.19606      0.08601      3.19606         0.687115      0.020918      0.166177
C      4.25547      0.13007      4.25547        -0.168231     -0.050545     -0.360823
C      3.19606     10.40319      7.29314         0.369601     -0.025907     -0.949866
C      4.25547     10.35913      6.23373        -0.133725     -0.056775      0.114233
C      3.19606      7.29314     10.40319         0.617291     -0.398062      0.004095
C      4.25547      6.23373     10.35913        -0.118335      0.179982      0.012395
C      7.29314      7.29314      0.08601        -0.429897     -0.302474     -0.014172
C      6.23373      6.23373      0.13007         0.156467      0.148545     -0.061062
C      3.19606      3.19606      0.08601         0.300689      0.496114     -0.020914
C      4.25547      4.25547      0.13007        -0.402462     -0.242927     -0.029377
C      7.29314      3.19606     10.40319        -0.284207      0.605666     -0.009689
C      6.23373      4.25547     10.35913         0.016298     -0.099434      0.014005
O     10.43466      3.58206      8.50569        -0.025919      0.076299      0.290971
O     10.54374     17.39634      8.50569         0.066912     -0.120215      0.591000
O     10.54374      3.58206     12.47271         0.030135      0.102962     -0.405835
O     10.43466     17.39634     12.47271         0.095864     -0.061322     -0.415932
O      8.50569     10.43466      3.58206         0.752237     -0.074221      0.020847
O      8.50569     10.54374     17.39634         0.529230      0.058327     -0.105784
O     12.47271     10.54374      3.58206        -0.644199      0.110344      0.212989
O     12.47271     10.43466     17.39634        -0.290711      0.006222      0.034057
O      3.58206      8.50569     10.43466         0.034178      0.442458     -0.060276
O     17.39634      8.50569     10.54374        -0.053777      0.451363      0.056663
O      3.58206     12.47271     10.54374         0.103318     -0.593476      0.003570
O     17.39634     12.47271     10.43466        -0.184508     -0.749455     -0.053467
O      3.58206     10.43466      8.50569         0.213282     -0.057337      0.809273
O     17.39634     10.54374      8.50569        -0.076832      0.077037      0.498254
O      3.58206     10.54374     12.47271        -0.000427     -0.004288     -0.259457
O     17.39634     10.43466     12.47271         0.042746     -0.010519     -0.227172
O     10.43466      8.50569      3.58206        -0.108604      0.512616     -0.104925
O     10.54374      8.50569     17.39634         0.054640      0.520991     -0.092232
O     10.54374     12.47271      3.58206         0.100969     -0.637813      0.127629
O     10.43466     12.47271     17.39634        -0.070276     -0.685896     -0.271897
O      8.50569      3.58206     10.43466         0.394644      0.019520     -0.046528
O      8.50569     17.39634     10.54374         0.643932     -0.152998      0.045736
O     12.47271      3.58206     10.54374        -0.523363      0.120701      0.026141
O     12.47271     17.39634     10.43466        -0.628667     -0.125566      0.039160
O     11.90042     11.90042     19.56718        -0.281210     -0.304385      0.221237
O     19.56718     19.56718     19.56718         0.309042      0.324779      0.295721
O     19.56718     11.90042     11.90042         0.282689     -0.327055     -0.237426
O     11.90042     19.56718     11.90042        -0.315084      0.229044     -0.200767
O      9.45224      1.03696      9.45224        -0.072269      0.083626     -0.086321
O      1.03696      9.45224      9.45224         0.095936     -0.104027     -0.065381
O      1.03696      1.03696      1.03696         0.079775      0.053246      0.096419
O      9.45224      9.45224      1.03696        -0.059593     -0.126645      0.134883
Zr     10.48920      2.52580     10.48920         0.047842     -0.088984      0.133412
Zr     10.48920     18.45260     10.48920        -0.182769      0.244870     -0.363743
Zr     10.48920     10.48920      2.52580         0.115715      0.371151     -0.342475
Zr     10.48920     10.48920     18.45260        -0.067854     -0.267004      0.253066
Zr      2.52580     10.48920     10.48920        -0.234728      0.130933      0.242046
Zr     18.45260     10.48920     10.48920         0.195353     -0.141884     -0.006281
Pd      9.35838     14.28745      9.31690         0.003260      0.091064     -0.022157
Pd      8.58966     13.62906     13.04543         0.001974      0.014556      0.045027
Pd     12.02328     14.40783      8.74156         0.016771     -0.014563      0.042706
Pd     12.76639     12.87579     10.67561        -0.040609      0.047306     -0.036749
Pd     12.12251      7.19594     12.67813         0.004819      0.013583     -0.001275
Pd     11.16504     14.89969     11.45505        -0.000416      0.040127     -0.021009
Pd     10.04329     12.55591     11.09765        -0.029000      0.005582     -0.066001
Pd     13.47515     12.15713      7.98107         0.025793      0.034196     -0.000683
Pd     11.48648     11.54496      6.12102        -0.007942     -0.012756     -0.026578
Pd      7.94519      8.38417      7.52449        -0.031716     -0.032139     -0.020542
Pd      8.72664     11.75458      6.84805        -0.030963     -0.009463     -0.006074
Pd     10.31989      9.44632      8.14832        -0.000504      0.044486      0.053702
Pd      8.50139     14.46351      6.79842        -0.019979     -0.014139     -0.026802
Pd     12.39569      9.01413      6.57257        -0.008494      0.041968      0.019438
Pd      9.71651      9.61150      5.56920         0.036535      0.026850      0.007993
Pd      6.80883      9.44735     12.13153        -0.001728      0.017340      0.047923
Pd     12.18091      6.74561      7.95335        -0.001793      0.012646      0.062587
Pd      5.92014     10.49304      9.68537        -0.004631      0.003430     -0.000892
Pd      7.54071      7.23768     13.40563         0.001510     -0.002661     -0.015777
Ir     11.74068      9.78483     13.06357        -0.030759     -0.018111      0.033243
Ir     13.55514      9.05706     11.47015        -0.006520      0.029074      0.046719
Ir      9.43421      8.84906     14.00193        -0.023712      0.080557      0.075145
Ir     10.50357     11.05079     14.86706        -0.021885     -0.124354      0.025924
Ir      7.27274     12.01482     11.34121        -0.036982      0.021535      0.055336
Ir     14.66053     10.90326     10.13367        -0.035680      0.021077      0.060914
Ir     12.16684     10.57285      9.67241        -0.052221      0.009803     -0.025881
Ir      8.74477     10.98755     12.98776        -0.000548     -0.020395      0.058661
Ir     10.11190      9.92102     11.17369        -0.025928     -0.055743     -0.047111
Ir     13.74382     11.41471     12.47951         0.017922     -0.014139      0.029513
Ir     11.60315     12.36530     13.07810        -0.049205     -0.019018      0.050203
Ir      8.51007     11.10321      9.34649        -0.008958     -0.148888     -0.052393
Ir     11.58283      8.03313     10.15523        -0.006788     -0.054655     -0.078550
Ir      7.21378     13.02030      8.65581        -0.043760      0.080540     -0.022191
Ir      9.54277      6.96190      9.23852         0.032808      0.010702      0.021222
Ir      8.04946      8.76223     10.06018         0.071559      0.050477     -0.039870
Ir     10.71290     12.13216      8.50546         0.081954     -0.060962      0.018773
Ir      9.51026      7.57239     11.75912         0.005907      0.046052     -0.073466
Ir     13.66708      8.79426      8.84241         0.028593     -0.035888     -0.002146
