40
# total energy = -343.46206852 eVC      1.19503      4.91358      7.50000        -0.040691     -0.081821     -0.000000
C     13.93187      3.44968      7.50000         0.040691      0.081821     -0.000000
C     13.93187      4.91358      7.50000         0.040691     -0.081821      0.000000
C      1.19503      3.44968      7.50000        -0.040691      0.081821      0.000000
C      8.75848      0.73195      7.50000        -0.040691     -0.081821      0.000000
C      6.36842      7.63131      7.50000         0.040691      0.081821      0.000000
C      6.36842      0.73195      7.50000         0.040691     -0.081821     -0.000000
C      8.75848      7.63131      7.50000        -0.040691      0.081821     -0.000000
C      2.48838      2.79132      7.50000        -0.001732     -0.142730     -0.000000
C     12.63852      5.57194      7.50000         0.001732      0.142730      0.000000
C     12.63852      2.79132      7.50000         0.001732     -0.142730     -0.000000
C      2.48838      5.57194      7.50000        -0.001732      0.142730      0.000000
C     10.05183      6.97295      7.50000        -0.001732     -0.142730     -0.000000
C      5.07507      1.39031      7.50000         0.001732      0.142730     -0.000000
C      5.07507      6.97295      7.50000         0.001732     -0.142730     -0.000000
C     10.05183      1.39031      7.50000        -0.001732      0.142730      0.000000
C      3.71471      4.88833      7.50000         0.246496     -0.004330     -0.000000
C     11.41219      3.47493      7.50000        -0.246496      0.004330      0.000000
C     11.41219      4.88833      7.50000        -0.246496     -0.004330      0.000000
C      3.71471      3.47493      7.50000         0.246496      0.004330     -0.000000
C     11.27816      0.70670      7.50000         0.246496     -0.004330     -0.000000
C      3.84874      7.65656      7.50000        -0.246496      0.004330      0.000000
C      3.84874      0.70670      7.50000        -0.246496     -0.004330      0.000000
C     11.27816      7.65656      7.50000         0.246496      0.004330     -0.000000
N      2.62421      6.94719      7.50000         0.572334     -0.536648     -0.000000
N     12.50269      1.41607      7.50000        -0.572334      0.536648      0.000000
N     12.50269      6.94719      7.50000        -0.572334     -0.536648      0.000000
N      2.62421      1.41607      7.50000         0.572334      0.536648     -0.000000
N     10.18766      2.76556      7.50000         0.572334     -0.536648     -0.000000
N      4.93924      5.59770      7.50000        -0.572334      0.536648     -0.000000
N      4.93924      2.76556      7.50000        -0.572334     -0.536648      0.000000
N     10.18766      5.59770      7.50000         0.572334      0.536648     -0.000000
N      7.56345      6.89910      7.50000         0.000000     -0.017491     -0.000000
N      7.56345      1.46416      7.50000         0.000000      0.017491     -0.000000
N      0.00000      2.71747      7.50000         0.000000     -0.017491     -0.000000
N      0.00000      5.64579      7.50000         0.000000      0.017491     -0.000000
Zr     13.92265      0.00000      7.50000         2.144718      0.000000     -0.000000
Zr      1.20425      0.00000      7.50000        -2.144718     -0.000000     -0.000000
Zr      6.35920      4.18163      7.50000         2.144718      0.000000     -0.000000
Zr      8.76770      4.18163      7.50000        -2.144718      0.000000     -0.000000
