152
# total energy = -1110.39368952 eVH     10.35389      5.87395      7.64558        -0.390824     -0.128999      1.158085
H     10.62451     15.10445      7.64558         0.325558      0.077760      0.916772
H     10.62451      5.87395     13.33282        -0.318359     -0.675699     -1.333090
H     10.35389     15.10445     13.33282        -0.584172      0.430571     -0.335646
H      7.64558     10.35389      5.87395         0.557895     -0.519015     -0.101502
H      7.64558     10.62451     15.10445         0.386939     -0.233743      0.043679
H     13.33282     10.62451      5.87395        -0.582799      0.648223     -0.050306
H     13.33282     10.35389     15.10445        -0.524523      0.384961      0.152546
H      5.87395      7.64558     10.35389         0.149180      0.558409      0.027251
H     15.10445      7.64558     10.62451         0.427734      1.028529      0.287732
H      5.87395     13.33282     10.62451        -0.220651     -0.505417      0.362070
H     15.10445     13.33282     10.35389         0.027702     -0.298628     -0.379431
H      5.87395     10.35389      7.64558        -0.105801     -0.415577      1.491806
H     15.10445     10.62451      7.64558         0.219790      0.519076      1.329832
H      5.87395     10.62451     13.33282        -0.221038     -0.371256     -1.208496
H     15.10445     10.35389     13.33282         0.613135      1.006206     -1.532700
H     10.35389      7.64558      5.87395        -0.588262      0.533088     -0.171555
H     10.62451      7.64558     15.10445        -0.133111      0.445860      0.155252
H     10.62451     13.33282      5.87395         0.867989     -1.323472     -0.311801
H     10.35389     13.33282     15.10445         0.221913     -0.562329     -0.107270
H      7.64558      5.87395     10.35389         0.722249      0.162490     -0.176151
H      7.64558     15.10445     10.62451         1.981633      0.746165      0.225490
H     13.33282      5.87395     10.62451        -2.649963     -0.897461     -0.518413
H     13.33282     15.10445     10.35389        -0.877480     -0.057038     -0.252120
H     12.45634     12.45634     19.01126         0.271903      0.258001     -0.227266
H     19.01126     19.01126     19.01126        -0.266845     -0.254618     -0.238629
H     19.01126     12.45634     12.45634        -0.284240      0.281894      0.184858
H     12.45634     19.01126     12.45634         0.256449     -0.250436      0.235902
C     10.35284      5.61067      6.59456         0.076782     -0.480108     -1.200462
C     10.62556     15.36773      6.59456         0.193257      0.753788     -0.809769
C     10.62556      5.61067     14.38384         0.179443     -0.293671      1.784041
C     10.35284     15.36773     14.38384         0.083990      0.382809      1.791098
C      6.59456     10.35284      5.61067        -1.138253     -0.110433     -0.899874
C      6.59456     10.62556     15.36773        -0.702489     -0.094107      0.798925
C     14.38384     10.62556      5.61067         0.833374     -0.111208     -0.988051
C     14.38384     10.35284     15.36773         1.174154      0.168601      1.096119
C      5.61067      6.59456     10.35284        -0.668249     -0.904559     -0.189409
C     15.36773      6.59456     10.62556         2.013909     -0.330021     -0.187791
C      5.61067     14.38384     10.62556        -1.568387     -0.013471     -0.141944
C     15.36773     14.38384     10.35284         0.484394      0.091986     -0.000867
C      5.61067     10.35284      6.59456        -0.275002      0.215061     -1.354749
C     15.36773     10.62556      6.59456         0.296976     -0.268948     -0.977876
C      5.61067     10.62556     14.38384        -0.256417      0.449924      1.459344
C     15.36773     10.35284     14.38384        -0.000877     -0.492312      1.944026
C     10.35284      6.59456      5.61067        -0.157397     -0.843183     -0.700510
C     10.62556      6.59456     15.36773        -0.118905     -0.711231      1.044192
C     10.62556     14.38384      5.61067        -0.501196      1.985091     -0.750948
C     10.35284     14.38384     15.36773        -0.257477      1.352488      0.504461
C      6.59456      5.61067     10.35284        -0.991741     -0.408585      0.095994
C      6.59456     15.36773     10.62556        -1.253370      0.369584     -0.333400
C     14.38384      5.61067     10.62556         1.268061     -1.303956      0.223317
C     14.38384     15.36773     10.35284         0.459045      0.309727      0.087956
C     10.40319      3.19606      7.29314         0.001096      0.305067     -0.112432
C     10.35913      4.25547      6.23373         0.142170     -0.581057      0.016925
C      0.08601      7.29314      7.29314        -0.053512     -0.277732     -0.418907
C      0.13007      6.23373      6.23373        -0.123901      0.666101      0.015837
C      0.08601      3.19606      3.19606        -0.105510      1.665962      0.165221
C      0.13007      4.25547      4.25547        -0.098661     -0.390634     -1.204224
C     10.40319      7.29314      3.19606         0.015818     -0.451652      0.121364
C     10.35913      6.23373      4.25547         0.264096      0.087619     -0.538149
C      7.29314     10.40319      3.19606        -1.699355      0.011668      0.325174
C      6.23373     10.35913      4.25547         0.672021      0.081067     -0.623376
C      7.29314      0.08601      7.29314        -0.411475     -0.015564     -0.318695
C      6.23373      0.13007      6.23373         0.732161     -0.058593      0.244206
C      3.19606      0.08601      3.19606         0.661047     -0.018373      0.179948
C      4.25547      0.13007      4.25547        -0.355675     -0.086609     -0.575749
C      3.19606     10.40319      7.29314         0.348218      0.024044     -0.320099
C      4.25547     10.35913      6.23373        -0.742018      0.079836      0.362531
C      3.19606      7.29314     10.40319         0.284263     -0.201779     -0.006447
C      4.25547      6.23373     10.35913         0.041714      0.632426      0.091678
C      7.29314      7.29314      0.08601        -0.715303     -0.609780     -0.028546
C      6.23373      6.23373      0.13007         0.904120      1.124529     -0.064815
C      3.19606      3.19606      0.08601         0.825029      0.515348      0.000290
C      4.25547      4.25547      0.13007        -0.325445     -1.769560     -0.130732
C      7.29314      3.19606     10.40319        -0.324409      0.270691     -0.004424
C      6.23373      4.25547     10.35913         0.508765     -0.020364      0.231365
O     10.43466      3.58206      8.50569        -0.048722      0.187632      0.260223
O     10.54374     17.39634      8.50569         0.042233     -0.236562      0.486870
O     10.54374      3.58206     12.47271         0.083851     -0.076756     -0.021108
O     10.43466     17.39634     12.47271        -0.023271     -0.141428     -0.267737
O      8.50569     10.43466      3.58206         0.993579      0.190947      0.376120
O      8.50569     10.54374     17.39634         0.580645      0.084539     -0.229569
O     12.47271     10.54374      3.58206        -0.412492     -0.040760      0.181186
O     12.47271     10.43466     17.39634        -0.505555     -0.067149     -0.192311
O      3.58206      8.50569     10.43466         0.184711      0.422817     -0.028521
O     17.39634      8.50569     10.54374        -0.230365      0.712300      0.046652
O      3.58206     12.47271     10.54374         0.162177     -0.682698      0.026631
O     17.39634     12.47271     10.43466        -0.186918     -0.474318     -0.010022
O      3.58206     10.43466      8.50569         0.231982     -0.061905      0.407107
O     17.39634     10.54374      8.50569        -0.172108      0.037517      0.413125
O      3.58206     10.54374     12.47271         0.148689      0.021524     -0.303894
O     17.39634     10.43466     12.47271         0.082225     -0.051787     -0.069267
O     10.43466      8.50569      3.58206         0.005355      0.273612      0.184015
O     10.54374      8.50569     17.39634         0.069443      0.425399     -0.173568
O     10.54374     12.47271      3.58206        -0.221920     -0.975221      0.328639
O     10.43466     12.47271     17.39634        -0.082072     -0.451253     -0.245200
O      8.50569      3.58206     10.43466         0.488251      0.197735     -0.009507
O      8.50569     17.39634     10.54374         0.664812     -0.204046      0.022632
O     12.47271      3.58206     10.54374        -0.747885      0.281173      0.038615
O     12.47271     17.39634     10.43466        -0.431845     -0.206103     -0.043331
O     11.90042     11.90042     19.56718        -0.347375     -0.307024      0.261418
O     19.56718     19.56718     19.56718         0.323940      0.311795      0.284569
O     19.56718     11.90042     11.90042         0.274204     -0.273133     -0.137799
O     11.90042     19.56718     11.90042        -0.305289      0.282890     -0.232916
O      9.45224      1.03696      9.45224        -0.061718      0.073582     -0.044561
O      1.03696      9.45224      9.45224         0.035719     -0.075736     -0.069618
O      1.03696      1.03696      1.03696         0.064096      0.151273      0.094873
O      9.45224      9.45224      1.03696        -0.144476     -0.099206      0.095287
Zr     10.48920      2.52580     10.48920         0.165172     -0.174166     -0.168492
Zr     10.48920     18.45260     10.48920        -0.101744      0.188370     -0.051348
Zr     10.48920     10.48920      2.52580         0.345847     -0.310706     -0.206054
Zr     10.48920     10.48920     18.45260         0.016019     -0.088750      0.199345
Zr      2.52580     10.48920     10.48920        -0.072525      0.180818     -0.052340
Zr     18.45260     10.48920     10.48920         0.147849     -0.133445     -0.253258
Ir     12.03689     12.48246     10.45423         0.004927     -0.006034     -0.005932
Ir     11.22212      7.41245     10.23547         0.010290     -0.002678     -0.023060
Ir      8.85894      7.34589     11.51673         0.001941     -0.008387     -0.014721
Ir      7.45769     11.64775      7.65798        -0.010576     -0.002559     -0.002522
Ir     11.59578     12.06954      7.11078         0.003727     -0.004796     -0.002125
Ir     13.78766      8.99395      7.51720         0.007593      0.000415     -0.012809
Ir     12.46907     13.95125      8.40569        -0.002435     -0.002175     -0.004977
Ir      9.74217     11.25346      5.53594         0.001731     -0.002312     -0.009564
Ir      9.07352     13.43857      7.07743        -0.000546     -0.007978     -0.000415
Ir      9.26260      9.67516      7.49510        -0.006860      0.005926     -0.005660
Ir     13.28630      7.03400     11.96122         0.000385     -0.008720      0.001557
Ir     13.64648      7.04311      9.10558         0.014910      0.000321     -0.004867
Ir     11.04504      7.58893     12.79152        -0.001180     -0.006092     -0.012262
Ir     13.59584     11.56408      8.74984        -0.008468     -0.002210      0.001088
Ir     11.50096      9.61723      6.21626        -0.000269     -0.011936     -0.007747
Ir      7.16213      9.14261      8.91692         0.004644     -0.006602     -0.004247
Ir     14.06118     11.44037     11.64443         0.000224      0.000844     -0.007214
Ir     11.66148      9.82024      8.85483         0.002721     -0.007863     -0.008948
Ir      9.44517      9.49634     10.22182         0.000536      0.002911     -0.009343
Ir     13.88194      9.41384     10.16348         0.002830      0.004280     -0.008114
Ir     13.84157      9.16253     12.87446         0.012677      0.000568     -0.007085
Ir     11.70485      9.75666     11.53337         0.005721     -0.001073     -0.012507
Ir      9.91805     11.72555      8.96035         0.003735     -0.015165     -0.000347
Ir      9.11670      7.43470      8.75918         0.011147      0.001093     -0.021115
Ir     11.65049      7.51389      7.71253         0.024702     -0.019095     -0.017825
Ir      9.25593      9.46243     13.00023         0.000269     -0.002972     -0.003356
Ir      7.50467     13.89790      8.99472        -0.002387     -0.001455      0.000781
Ir     10.86000     14.09512     11.95306        -0.007058     -0.003633      0.005913
Ir     10.11045     14.14159      9.51443        -0.002410      0.000069     -0.000625
Ir      9.78998     11.67444     11.72229        -0.005950     -0.004488      0.000064
Ir      7.59094     11.55823     10.20517         0.004466     -0.006215      0.002990
Ir      8.34189     13.73005     11.58159         0.001363     -0.010156     -0.000964
Ir      7.52530     11.53610     12.82048         0.003143     -0.008442     -0.005763
Ir      9.78105     11.58388     14.34170         0.006046     -0.014861     -0.002134
Ir     13.46217     13.88331     12.18512        -0.003169     -0.001826     -0.001457
Ir     11.98980     12.03908     13.07525        -0.000289     -0.004844     -0.001460
Ir     11.58829      9.77287     14.17204         0.002734     -0.011328     -0.010691
Ir      7.15881      9.34105     11.47533         0.003744     -0.005775     -0.008098
