152
# total energy = -1060.15851611 eVH     10.35389      5.87395      7.64558        -0.314102      0.101487      1.085096
H     10.62451     15.10445      7.64558         0.087334     -0.071808      0.896557
H     10.62451      5.87395     13.33282        -0.269349      0.073366     -0.781284
H     10.35389     15.10445     13.33282         0.095242     -0.302460     -0.819000
H      7.64558     10.35389      5.87395         0.892703     -0.200020      0.208720
H      7.64558     10.62451     15.10445         0.314723     -0.028216     -0.061315
H     13.33282     10.62451      5.87395        -0.884359      0.216690      0.218298
H     13.33282     10.35389     15.10445        -0.281762     -0.028972     -0.061282
H      5.87395      7.64558     10.35389         0.093827      0.419796     -0.012725
H     15.10445      7.64558     10.62451        -0.044011      0.442224     -0.024970
H      5.87395     13.33282     10.62451        -0.018723     -0.968819      0.077540
H     15.10445     13.33282     10.35389        -0.087519     -0.324840      0.003212
H      5.87395     10.35389      7.64558         0.319953      0.061694      0.370588
H     15.10445     10.62451      7.64558        -0.120843     -0.159128      0.666127
H      5.87395     10.62451     13.33282        -0.061374      0.448625     -0.599631
H     15.10445     10.35389     13.33282         0.223027     -0.632019     -0.874160
H     10.35389      7.64558      5.87395        -0.018727      0.500380      0.344936
H     10.62451      7.64558     15.10445         0.335030      0.791288     -0.005482
H     10.62451     13.33282      5.87395         0.149232     -0.568717      0.202839
H     10.35389     13.33282     15.10445         0.036984     -0.290326     -0.166948
H      7.64558      5.87395     10.35389         0.370592      0.114720      0.063128
H      7.64558     15.10445     10.62451         0.386896     -0.127193      0.180589
H     13.33282      5.87395     10.62451        -0.306498      0.137014     -0.013671
H     13.33282     15.10445     10.35389        -0.655515     -0.110424      0.139607
H     12.45634     12.45634     19.01126         0.259086      0.272359     -0.226340
H     19.01126     19.01126     19.01126        -0.248097     -0.267237     -0.244236
H     19.01126     12.45634     12.45634        -0.249129      0.271586      0.236927
H     12.45634     19.01126     12.45634         0.289846     -0.234770      0.235541
C     10.35284      5.61067      6.59456         0.403152     -0.420383     -1.358842
C     10.62556     15.36773      6.59456        -0.172401      0.611787     -0.664222
C     10.62556      5.61067     14.38384         0.365442     -0.274152      0.774616
C     10.35284     15.36773     14.38384        -0.204033      0.218392      1.017870
C      6.59456     10.35284      5.61067        -1.387019      0.030055     -0.225086
C      6.59456     10.62556     15.36773        -0.667427      0.064906      0.355715
C     14.38384     10.62556      5.61067         1.311609     -0.185677     -0.629297
C     14.38384     10.35284     15.36773         0.317878     -0.131476      0.350534
C      5.61067      6.59456     10.35284        -0.274804     -0.669555     -0.029737
C     15.36773      6.59456     10.62556         0.408741     -0.859807      0.025630
C      5.61067     14.38384     10.62556        -0.147098      1.194931     -0.218303
C     15.36773     14.38384     10.35284         0.500440      0.702188     -0.037625
C      5.61067     10.35284      6.59456        -0.372740     -0.102672     -0.783172
C     15.36773     10.62556      6.59456         0.399631      0.108724     -0.679215
C      5.61067     10.62556     14.38384        -0.409645     -0.161334      1.216375
C     15.36773     10.35284     14.38384         0.233777      0.225939      1.411996
C     10.35284      6.59456      5.61067        -0.070122     -0.744687     -0.544981
C     10.62556      6.59456     15.36773        -0.143002     -0.984006      0.374557
C     10.62556     14.38384      5.61067        -0.495171      0.382095     -0.739027
C     10.35284     14.38384     15.36773        -0.175595      0.745978      0.498329
C      6.59456      5.61067     10.35284        -0.560498     -0.333940      0.004202
C      6.59456     15.36773     10.62556        -0.358910      0.445402      0.065430
C     14.38384      5.61067     10.62556         0.433277     -0.312965      0.008109
C     14.38384     15.36773     10.35284         1.128241      0.486026     -0.079006
C     10.40319      3.19606      7.29314        -0.007304      0.780595     -0.336003
C     10.35913      4.25547      6.23373         0.022394     -0.379986      0.292096
C      0.08601      7.29314      7.29314        -0.018573     -0.380078     -0.505872
C      0.13007      6.23373      6.23373        -0.047442      0.880430      0.093895
C      0.08601      3.19606      3.19606        -0.007370      0.693806      0.259664
C      0.13007      4.25547      4.25547         0.046446     -0.266187     -0.547856
C     10.40319      7.29314      3.19606        -0.063779     -1.111750      0.623460
C     10.35913      6.23373      4.25547        -0.047388      0.346466     -0.201372
C      7.29314     10.40319      3.19606        -1.089406     -0.054253      0.202107
C      6.23373     10.35913      4.25547         0.377623      0.101978     -0.519032
C      7.29314      0.08601      7.29314        -0.480490      0.028898     -0.442669
C      6.23373      0.13007      6.23373         0.180969      0.122117      0.120537
C      3.19606      0.08601      3.19606         0.696748      0.022605      0.172824
C      4.25547      0.13007      4.25547        -0.173423     -0.051542     -0.362485
C      3.19606     10.40319      7.29314         0.368341     -0.026300     -0.951402
C      4.25547     10.35913      6.23373        -0.127827     -0.054417      0.114860
C      3.19606      7.29314     10.40319         0.618500     -0.400285      0.002687
C      4.25547      6.23373     10.35913        -0.115222      0.176508      0.010689
C      7.29314      7.29314      0.08601        -0.429359     -0.295844     -0.014939
C      6.23373      6.23373      0.13007         0.151577      0.154778     -0.065563
C      3.19606      3.19606      0.08601         0.294489      0.493259     -0.024759
C      4.25547      4.25547      0.13007        -0.406373     -0.241180     -0.031033
C      7.29314      3.19606     10.40319        -0.284864      0.596039     -0.009822
C      6.23373      4.25547     10.35913         0.015230     -0.093564      0.014613
O     10.43466      3.58206      8.50569        -0.026534      0.074896      0.303464
O     10.54374     17.39634      8.50569         0.064089     -0.123045      0.591670
O     10.54374      3.58206     12.47271         0.029152      0.102285     -0.398515
O     10.43466     17.39634     12.47271         0.094436     -0.062060     -0.434813
O      8.50569     10.43466      3.58206         0.732314     -0.072457      0.016895
O      8.50569     10.54374     17.39634         0.537242      0.061946     -0.104857
O     12.47271     10.54374      3.58206        -0.653077      0.113561      0.209832
O     12.47271     10.43466     17.39634        -0.280659      0.004622      0.036393
O      3.58206      8.50569     10.43466         0.033675      0.445305     -0.063137
O     17.39634      8.50569     10.54374        -0.053689      0.446415      0.056475
O      3.58206     12.47271     10.54374         0.104692     -0.588181      0.003844
O     17.39634     12.47271     10.43466        -0.181157     -0.742365     -0.049289
O      3.58206     10.43466      8.50569         0.209205     -0.060556      0.807636
O     17.39634     10.54374      8.50569        -0.072024      0.072269      0.489142
O      3.58206     10.54374     12.47271        -0.002052     -0.005541     -0.264443
O     17.39634     10.43466     12.47271         0.034585     -0.009896     -0.234510
O     10.43466      8.50569      3.58206        -0.108895      0.532979     -0.100076
O     10.54374      8.50569     17.39634         0.058751      0.511272     -0.085498
O     10.54374     12.47271      3.58206         0.102627     -0.636148      0.129125
O     10.43466     12.47271     17.39634        -0.066288     -0.691530     -0.276475
O      8.50569      3.58206     10.43466         0.396853      0.022621     -0.046558
O      8.50569     17.39634     10.54374         0.641396     -0.153765      0.045864
O     12.47271      3.58206     10.54374        -0.517729      0.121441      0.028356
O     12.47271     17.39634     10.43466        -0.625536     -0.123149      0.041393
O     11.90042     11.90042     19.56718        -0.278856     -0.303954      0.222616
O     19.56718     19.56718     19.56718         0.309903      0.322699      0.297412
O     19.56718     11.90042     11.90042         0.283758     -0.324896     -0.236028
O     11.90042     19.56718     11.90042        -0.314245      0.229303     -0.201864
O      9.45224      1.03696      9.45224        -0.073827      0.087316     -0.080624
O      1.03696      9.45224      9.45224         0.100724     -0.108046     -0.062430
O      1.03696      1.03696      1.03696         0.079577      0.054505      0.097232
O      9.45224      9.45224      1.03696        -0.058870     -0.125770      0.135712
Zr     10.48920      2.52580     10.48920         0.044034     -0.094457      0.123179
Zr     10.48920     18.45260     10.48920        -0.184082      0.246958     -0.359201
Zr     10.48920     10.48920      2.52580         0.112261      0.357548     -0.342560
Zr     10.48920     10.48920     18.45260        -0.078514     -0.259982      0.237181
Zr      2.52580     10.48920     10.48920        -0.240659      0.132172      0.245286
Zr     18.45260     10.48920     10.48920         0.195189     -0.138798     -0.019496
Pd      9.36243     14.30580      9.30725         0.001620      0.015106     -0.023848
Pd      8.59020     13.63567     13.05551         0.002123      0.000868      0.020431
Pd     12.02629     14.40584      8.74492         0.004766     -0.003762      0.003815
Pd     12.74808     12.87410     10.68167        -0.029552     -0.004473      0.016078
Pd     12.12074      7.19283     12.67606         0.001585     -0.002698     -0.000175
Pd     11.15759     14.90664     11.45036        -0.013787      0.016224     -0.011933
Pd     10.02646     12.56165     11.08462        -0.020285      0.021119     -0.008782
Pd     13.48433     12.15815      7.98453         0.007177      0.008644      0.005489
Pd     11.48159     11.54610      6.10995         0.004094      0.010168     -0.001203
Pd      7.94260      8.37093      7.52243        -0.000370     -0.023578     -0.003390
Pd      8.72136     11.75836      6.84664         0.000624      0.002198     -0.002378
Pd     10.31579      9.45468      8.15407        -0.018826     -0.000146      0.009214
Pd      8.49555     14.46524      6.78674        -0.007724      0.002808     -0.014011
Pd     12.39392      9.02478      6.57936        -0.010677      0.019977      0.024540
Pd      9.72057      9.61099      5.57419         0.005386      0.005398      0.002482
Pd      6.81602      9.45152     12.13764         0.009980     -0.002535      0.001744
Pd     12.18084      6.74294      7.95335         0.005713     -0.001334     -0.001131
Pd      5.91499     10.48250      9.69020         0.002007     -0.002632      0.006995
Pd      7.55039      7.23760     13.40307         0.004138     -0.004064     -0.010888
Ir     11.73379      9.77692     13.06715        -0.011821     -0.017665      0.006312
Ir     13.55202      9.05881     11.47858        -0.013227      0.014117      0.006952
Ir      9.42454      8.86263     14.01035        -0.023236     -0.008903      0.007588
Ir     10.50166     11.02107     14.88521        -0.007561     -0.047747      0.073375
Ir      7.26728     12.01520     11.34190        -0.010688      0.000529      0.003112
Ir     14.65236     10.91255     10.15406        -0.024633      0.020586      0.042366
Ir     12.16845     10.56671      9.67043         0.019135     -0.022815     -0.015422
Ir      8.74461     10.99657     12.98771         0.030119      0.028476      0.004108
Ir     10.10854      9.92050     11.17135        -0.000302      0.020699     -0.036106
Ir     13.73487     11.42104     12.49022        -0.038566      0.000927      0.043199
Ir     11.58531     12.35449     13.08571        -0.090579     -0.024327      0.002017
Ir      8.49867     11.10091      9.33588        -0.009540      0.003636      0.002956
Ir     11.59492      8.02687     10.14364         0.024068      0.006259      0.006669
Ir      7.21972     13.03431      8.65818         0.016248      0.017499      0.010776
Ir      9.55004      6.96172      9.24055         0.005281     -0.005976     -0.002159
Ir      8.05527      8.76507     10.05622        -0.004929      0.012883     -0.013259
Ir     10.72465     12.12293      8.50571        -0.001188      0.005528     -0.006675
Ir      9.51612      7.57621     11.75531         0.001485      0.000702      0.006013
Ir     13.67556      8.78979      8.84578         0.012480      0.008646      0.038663
