26
# total energy = -205.61095901 eVC      0.70349      1.25174      7.50000        -0.006675      0.001037      0.000000
C     10.79632      6.56664      7.50000         0.010271     -0.000830      0.000000
C      0.73804     11.42852      7.50000        -0.001055      0.002625      0.000000
C     11.53066      5.33368      7.50000         0.006675     -0.001037      0.000000
C      1.43783      0.01878      7.50000        -0.010271      0.000830      0.000000
C     11.49611     -4.84310      7.50000         0.001055     -0.002625      0.000000
C     10.79600     -3.64934      7.50000         0.002037      0.003084      0.000000
C     10.85608      4.12520      7.50000        -0.003809     -0.010523     -0.000000
C      2.82636      0.04382      7.50000         0.028501     -0.004196      0.000000
C      1.43815     10.23476      7.50000        -0.002037     -0.003084      0.000000
C      1.37807      2.46022      7.50000         0.003809      0.010523      0.000000
C      9.40779      6.54160      7.50000        -0.028501      0.004196      0.000000
N      7.76399      0.26012      7.50000         0.000624      0.006743      0.000000
N      4.47016      6.32530      7.50000        -0.000624     -0.006743      0.000000
N      4.00903      0.08372      7.50000        -0.026770     -0.004331     -0.000000
N     10.23053     -2.60994      7.50000        -0.003984      0.008325      0.000000
N     10.29627      3.08271      7.50000         0.000346     -0.002877      0.000000
N      8.22512      6.50171      7.50000         0.026770      0.004331     -0.000000
N      2.00362      9.19536      7.50000         0.003984     -0.008325     -0.000000
N      1.93788      3.50271      7.50000        -0.000346      0.002877      0.000000
Ir      2.99233      7.53256      7.50000         0.007486     -0.010034     -0.000000
Ir      2.98096      5.13094      7.50000         0.010422      0.007879      0.000000
Ir      6.29754      6.40892      7.50000         0.008917     -0.002794      0.000000
Ir      9.24182     -0.94714      7.50000        -0.007486      0.010034      0.000000
Ir      9.25319      1.45448      7.50000        -0.010422     -0.007879      0.000000
Ir      5.93661      0.17650      7.50000        -0.008917      0.002794      0.000000
