22
# total energy = -164.29533153 eVC      8.35967      1.71945      7.50000         0.309832     -0.043188      0.000000
C      0.71864      7.35886      7.50000        -0.309832      0.043188      0.000000
C      7.35886      8.35967      7.50000         0.043188      0.309832      0.000000
C      1.71945      0.71864      7.50000        -0.043188     -0.309832      0.000000
C      0.71864      1.71945      7.50000        -0.309832     -0.043188     -0.000000
C      8.35967      7.35886      7.50000         0.309832      0.043188      0.000000
C      1.71945      8.35967      7.50000        -0.043188      0.309832      0.000000
C      7.35886      0.71864      7.50000         0.043188     -0.309832      0.000000
O      7.85719      2.97101      7.50000        -0.068441      0.103145     -0.000000
O      1.22112      6.10730      7.50000         0.068441     -0.103145     -0.000000
O      6.10730      7.85719      7.50000        -0.103145     -0.068441      0.000000
O      2.97101      1.22112      7.50000         0.103145      0.068441      0.000000
O      1.22112      2.97101      7.50000         0.068441      0.103145      0.000000
O      7.85719      6.10730      7.50000        -0.068441     -0.103145      0.000000
O      2.97101      7.85719      7.50000         0.103145     -0.068441     -0.000000
O      6.10730      1.22112      7.50000        -0.103145      0.068441     -0.000000
Ir      0.00000      4.53916      7.50000        -0.000000      0.000000      0.000000
Ir      4.53916     -0.00000      7.50000        -0.000000      0.000000      0.000000
Ir      3.38942      5.68889      7.50000         0.024338     -0.024338      0.000000
Ir      5.68889      3.38942      7.50000        -0.024338      0.024338      0.000000
Ir      3.38942      3.38942      7.50000         0.024338      0.024338      0.000000
Ir      5.68889      5.68889      7.50000        -0.024338     -0.024338      0.000000
