152
# total energy = -1005.54849625 eVH     10.35389      5.87395      7.64558         0.159519      0.101775      0.569780
H     10.62451     15.10445      7.64558        -0.118591     -0.147404      0.498854
H     10.62451      5.87395     13.33282         0.580717      0.084744     -0.833127
H     10.35389     15.10445     13.33282         0.025656     -0.157925     -0.404310
H      7.64558     10.35389      5.87395         0.354990      0.038350      0.164847
H      7.64558     10.62451     15.10445         0.884883      0.529789      0.000156
H     13.33282     10.62451      5.87395        -0.438568      0.349708      0.111037
H     13.33282     10.35389     15.10445        -0.850657     -0.072308      0.008244
H      5.87395      7.64558     10.35389         0.316876      1.204038      0.032918
H     15.10445      7.64558     10.62451        -0.107111      0.487465      0.293906
H      5.87395     13.33282     10.62451         0.185603     -0.617336      0.041016
H     15.10445     13.33282     10.35389        -0.078875     -0.949997     -0.202128
H      5.87395     10.35389      7.64558         0.207024      0.051187      0.441457
H     15.10445     10.62451      7.64558        -0.140701      0.514535      0.773873
H      5.87395     10.62451     13.33282         0.062485      0.417673     -1.016440
H     15.10445     10.35389     13.33282        -0.074759     -0.032923     -0.645562
H     10.35389      7.64558      5.87395         0.330040      1.165437      0.062836
H     10.62451      7.64558     15.10445         0.689487      0.679299     -0.215294
H     10.62451     13.33282      5.87395        -0.398335     -0.810201      0.268883
H     10.35389     13.33282     15.10445        -0.100337     -0.469981     -0.288609
H      7.64558      5.87395     10.35389         0.843294      0.056507     -0.214237
H      7.64558     15.10445     10.62451         0.805043     -0.179543      0.030087
H     13.33282      5.87395     10.62451        -0.718645      0.168650      0.515794
H     13.33282     15.10445     10.35389        -0.377142     -0.119074     -0.092991
H     12.45634     12.45634     19.01126         0.246176      0.271499     -0.233236
H     19.01126     19.01126     19.01126        -0.274054     -0.249486     -0.240424
H     19.01126     12.45634     12.45634        -0.277285      0.262961      0.219923
H     12.45634     19.01126     12.45634         0.236437     -0.263017      0.272992
C     10.35284      5.61067      6.59456        -0.320236     -0.742851     -0.099640
C     10.62556     15.36773      6.59456         0.062925      0.336998     -0.263023
C     10.62556      5.61067     14.38384        -0.148610     -0.513319      0.250847
C     10.35284     15.36773     14.38384         0.017550      0.192786      0.355865
C      6.59456     10.35284      5.61067        -0.393528      0.011991     -0.251507
C      6.59456     10.62556     15.36773        -0.635320      0.079046      0.642037
C     14.38384     10.62556      5.61067        -0.255820     -0.464870     -0.675834
C     14.38384     10.35284     15.36773         1.046674     -0.088221      0.177828
C      5.61067      6.59456     10.35284        -0.734473     -0.249360     -0.348158
C     15.36773      6.59456     10.62556         0.536697      0.013558     -0.348015
C      5.61067     14.38384     10.62556        -0.231679      0.680067     -0.016042
C     15.36773     14.38384     10.35284         0.279152      0.955894      0.027473
C      5.61067     10.35284      6.59456        -0.296891      0.003047     -0.767587
C     15.36773     10.62556      6.59456         0.493974     -0.264860      0.203451
C      5.61067     10.62556     14.38384        -0.677004     -0.024616      0.481302
C     15.36773     10.35284     14.38384         0.428668     -0.035057      1.003363
C     10.35284      6.59456      5.61067        -0.141114     -0.763464     -0.567558
C     10.62556      6.59456     15.36773        -0.075105     -0.426277      0.585588
C     10.62556     14.38384      5.61067         0.199604      1.151047     -0.355477
C     10.35284     14.38384     15.36773        -0.002999      0.831278      0.386738
C      6.59456      5.61067     10.35284         0.112669     -1.064024      0.255189
C      6.59456     15.36773     10.62556        -0.977794      0.228912      0.079940
C     14.38384      5.61067     10.62556         0.308933     -0.557073     -0.366592
C     14.38384     15.36773     10.35284         0.142807      0.372298     -0.078572
C     10.40319      3.19606      7.29314         0.004865      0.849946     -0.452183
C     10.35913      4.25547      6.23373         0.065160     -0.549972      0.103947
C      0.08601      7.29314      7.29314        -0.041835     -0.800960     -0.240588
C      0.13007      6.23373      6.23373        -0.043583      0.196520      0.464733
C      0.08601      3.19606      3.19606         0.019505      1.413885      0.266739
C      0.13007      4.25547      4.25547         0.017615     -0.629565     -0.257514
C     10.40319      7.29314      3.19606         0.003119     -0.333846      0.267258
C     10.35913      6.23373      4.25547         0.030272      0.024606     -0.732344
C      7.29314     10.40319      3.19606        -0.258757      0.017754      0.538319
C      6.23373     10.35913      4.25547         0.142785      0.043700     -0.060088
C      7.29314      0.08601      7.29314        -0.815042     -0.076399     -0.308997
C      6.23373      0.13007      6.23373         0.805793     -0.168963      0.418301
C      3.19606      0.08601      3.19606         0.929604     -0.024511      0.574562
C      4.25547      0.13007      4.25547        -0.542147     -0.088844     -0.640383
C      3.19606     10.40319      7.29314         0.543359     -0.009642     -0.759916
C      4.25547     10.35913      6.23373        -0.267057      0.065697      0.215309
C      3.19606      7.29314     10.40319         0.293873     -1.301808      0.027199
C      4.25547      6.23373     10.35913        -1.049620      0.021790      0.115539
C      7.29314      7.29314      0.08601        -0.437420     -0.423652     -0.014378
C      6.23373      6.23373      0.13007         0.538968      0.235898      0.014431
C      3.19606      3.19606      0.08601         0.451010      0.354182     -0.034439
C      4.25547      4.25547      0.13007        -0.131469     -0.581903     -0.046133
C      7.29314      3.19606     10.40319        -0.384024      0.443311      0.055958
C      6.23373      4.25547     10.35913         0.262003     -0.739798      0.137570
O     10.43466      3.58206      8.50569        -0.014163      0.054934      0.449727
O     10.54374     17.39634      8.50569         0.063492     -0.083616      0.353433
O     10.54374      3.58206     12.47271         0.026545     -0.120717     -0.145089
O     10.43466     17.39634     12.47271        -0.028133     -0.167890     -0.519207
O      8.50569     10.43466      3.58206         0.276125     -0.022138      0.011376
O      8.50569     10.54374     17.39634         0.775349     -0.040886     -0.176199
O     12.47271     10.54374      3.58206        -0.806350      0.097651      0.085921
O     12.47271     10.43466     17.39634        -0.477069      0.033798     -0.079564
O      3.58206      8.50569     10.43466         0.157661      1.079040     -0.033421
O     17.39634      8.50569     10.54374        -0.158318      0.585267      0.068209
O      3.58206     12.47271     10.54374         0.103806     -0.437467      0.038022
O     17.39634     12.47271     10.43466        -0.145553     -0.552447     -0.030968
O      3.58206     10.43466      8.50569         0.069722     -0.090097      0.608807
O     17.39634     10.54374      8.50569        -0.037943      0.089041      0.428855
O      3.58206     10.54374     12.47271         0.012513      0.035001     -0.490916
O     17.39634     10.43466     12.47271        -0.231089     -0.045892     -0.648564
O     10.43466      8.50569      3.58206        -0.038434      0.451273      0.139569
O     10.54374      8.50569     17.39634        -0.055176      0.694860     -0.215184
O     10.54374     12.47271      3.58206         0.036610     -1.000475      0.108352
O     10.43466     12.47271     17.39634         0.058565     -0.800872     -0.212750
O      8.50569      3.58206     10.43466         0.574010      0.153234     -0.054533
O      8.50569     17.39634     10.54374         0.528207     -0.180765      0.000363
O     12.47271      3.58206     10.54374        -0.603923      0.193859      0.002997
O     12.47271     17.39634     10.43466        -0.249924      0.070247     -0.044473
O     11.90042     11.90042     19.56718        -0.262382     -0.307962      0.229868
O     19.56718     19.56718     19.56718         0.325230      0.294382      0.250779
O     19.56718     11.90042     11.90042         0.316567     -0.261320     -0.236238
O     11.90042     19.56718     11.90042        -0.238120      0.301387     -0.329253
O      9.45224      1.03696      9.45224         0.002531      0.069530     -0.129007
O      1.03696      9.45224      9.45224         0.086071     -0.073276     -0.166821
O      1.03696      1.03696      1.03696         0.112182      0.167816      0.028339
O      9.45224      9.45224      1.03696        -0.094068     -0.112669      0.013130
Zr     10.48920      2.52580     10.48920        -0.094953     -0.221237     -0.018786
Zr     10.48920     18.45260     10.48920        -0.098681      0.185794      0.175440
Zr     10.48920     10.48920      2.52580        -0.104385     -0.439830     -0.209033
Zr     10.48920     10.48920     18.45260        -0.160733      0.016210      0.426189
Zr      2.52580     10.48920     10.48920        -0.342639      0.283580      0.292136
Zr     18.45260     10.48920     10.48920         0.163911      0.012784     -0.111343
Pd     13.62369      8.95418      9.13066         0.001031     -0.004649      0.019258
Pd      5.70504      9.73287      9.99683         0.000211      0.020568      0.021174
Pd      6.84340     11.43710     11.71066        -0.023725      0.082005     -0.008951
Pd     12.18507     13.11595      7.33697         0.003977     -0.009418     -0.003804
Pd     12.08240      7.88201      7.19066        -0.012875     -0.010076      0.031342
Pd      8.29195      7.05600      6.55792         0.000537     -0.003575      0.008186
Pd     10.87902     11.28951      5.58009         0.008781     -0.007909     -0.000961
Pd     14.63045      8.53266      6.69551        -0.013549     -0.000660      0.013398
Pd      9.64138     11.80476      8.00358         0.006909     -0.003411     -0.004874
Pd      6.71451      6.78214     12.29691         0.031075      0.000820     -0.010690
Pd      6.38612      7.57449      8.27476        -0.004922      0.018991     -0.002989
Pd      6.96417      8.82710     13.91942        -0.041391     -0.057957      0.059448
Pd     11.62962      6.54652      9.49251        -0.026261     -0.005079      0.041205
Pd      9.74119      9.29470      6.89966        -0.006349     -0.000950      0.007420
Pd      9.02516     13.96800      9.41305        -0.004401     -0.001251     -0.010527
Pd      9.98508      7.09721     11.54480        -0.070811      0.044719      0.037811
Pd     10.52610      8.96783      9.55268        -0.005496      0.003880      0.013075
Pd      9.35533     11.27849     10.60624        -0.009141      0.024687     -0.003437
Pd      8.88912      6.99580      9.12495        -0.008858      0.007167      0.010090
Pd      8.76237      6.88727     13.89999        -0.034615     -0.062742      0.065885
Pd      8.02185      8.95493     11.43736        -0.046984      0.073616      0.057652
Pd     11.95458     10.52132      7.83655         0.006618     -0.011222     -0.000305
Pd      7.13927     12.05644      9.14138        -0.002319     -0.000644     -0.023449
Pd      8.02578      9.58978      8.81144         0.003784     -0.002499      0.027286
Pd     14.16711      6.49868      8.44885        -0.024206     -0.007331      0.006654
Pd     12.53779      8.25349     11.46823        -0.018070     -0.001667      0.009761
Pd      8.81512     11.35454     13.42794        -0.021400      0.022535     -0.007396
Pd     13.89708     11.93005      9.03972         0.004455     -0.001354     -0.003137
Pd     12.86733     10.57178     13.09042         0.006431      0.004047      0.000159
Pd     14.72016     10.31560     11.13628         0.009789      0.013033      0.001395
Pd     12.05147     10.73612     10.59112         0.006305      0.005020     -0.004905
Pd     11.45049     13.15542      9.86762        -0.001165      0.002985     -0.005333
Pd     13.56644     12.81592     11.67172        -0.000290      0.004890     -0.004343
Pd     11.03671     12.53528     12.44463         0.002404     -0.002512     -0.000223
Pd     11.09108     11.35423     14.87955        -0.016248     -0.014554     -0.003614
Pd     10.46980      9.52207     12.55062        -0.001947      0.039928     -0.020712
Pd      9.43487      9.29684     14.97786        -0.015059     -0.018545     -0.057968
Pd      8.63334     13.53823     11.99464         0.021484      0.034206      0.001490
