152
# total energy = -1061.01634925 eVH     10.35389      5.87395      7.64558        -0.501907      0.157515      1.189814
H     10.62451     15.10445      7.64558         0.074873     -0.093792      0.797818
H     10.62451      5.87395     13.33282        -0.244688      0.060560     -0.596560
H     10.35389     15.10445     13.33282         0.004351     -0.297847     -0.490255
H      7.64558     10.35389      5.87395         0.713026     -0.001456      0.210660
H      7.64558     10.62451     15.10445         0.189178      0.004351     -0.056466
H     13.33282     10.62451      5.87395        -0.595876     -0.061743      0.155637
H     13.33282     10.35389     15.10445        -0.308457     -0.064753     -0.078730
H      5.87395      7.64558     10.35389         0.127438      0.368178     -0.027578
H     15.10445      7.64558     10.62451        -0.123496      0.818024      0.386546
H      5.87395     13.33282     10.62451         0.132750     -0.550955     -0.012960
H     15.10445     13.33282     10.35389        -0.248073     -0.482404      0.116575
H      5.87395     10.35389      7.64558         0.250640      0.134656      0.356915
H     15.10445     10.62451      7.64558        -0.181742     -0.073826      0.323108
H      5.87395     10.62451     13.33282         0.018068      0.180259     -0.757241
H     15.10445     10.35389     13.33282         0.040731     -0.234966     -0.635923
H     10.35389      7.64558      5.87395        -0.100585      0.445998      0.268714
H     10.62451      7.64558     15.10445         0.383616      0.736783     -0.109839
H     10.62451     13.33282      5.87395         0.352082     -0.597024      0.117932
H     10.35389     13.33282     15.10445         0.135898     -0.555959     -0.109990
H      7.64558      5.87395     10.35389         0.444587      0.152322     -0.003149
H      7.64558     15.10445     10.62451         0.433982     -0.163069      0.279621
H     13.33282      5.87395     10.62451        -0.326361      0.112781      0.023810
H     13.33282     15.10445     10.35389        -0.547239     -0.238744      0.203554
H     12.45634     12.45634     19.01126         0.244848      0.266823     -0.237535
H     19.01126     19.01126     19.01126        -0.253695     -0.263430     -0.231728
H     19.01126     12.45634     12.45634        -0.231804      0.261709      0.249540
H     12.45634     19.01126     12.45634         0.294819     -0.211365      0.240974
C     10.35284      5.61067      6.59456         0.451223     -0.397958     -1.160992
C     10.62556     15.36773      6.59456        -0.158254      0.815942     -0.643362
C     10.62556      5.61067     14.38384         0.320834     -0.264438      0.579541
C     10.35284     15.36773     14.38384        -0.132847      0.318773      0.632900
C      6.59456     10.35284      5.61067        -0.658388     -0.138815     -0.188800
C      6.59456     10.62556     15.36773        -0.546790      0.073645      0.362417
C     14.38384     10.62556      5.61067         0.998471      0.032167     -0.446912
C     14.38384     10.35284     15.36773         0.286044     -0.078566      0.328514
C      5.61067      6.59456     10.35284        -0.365165     -0.503787      0.024601
C     15.36773      6.59456     10.62556         0.198762     -0.829906     -0.312322
C      5.61067     14.38384     10.62556        -0.221139      0.629120     -0.253735
C     15.36773     14.38384     10.35284         0.356139      0.868893     -0.133786
C      5.61067     10.35284      6.59456        -0.225178     -0.138451     -0.341892
C     15.36773     10.62556      6.59456         0.192629      0.065218     -0.297659
C      5.61067     10.62556     14.38384        -0.422896     -0.043891      1.318247
C     15.36773     10.35284     14.38384         0.266505     -0.041225      0.945044
C     10.35284      6.59456      5.61067        -0.034437     -0.310504     -0.482867
C     10.62556      6.59456     15.36773        -0.053239     -0.893118      0.297922
C     10.62556     14.38384      5.61067        -0.321399     -0.107164     -0.770993
C     10.35284     14.38384     15.36773        -0.250892      0.824077      0.275277
C      6.59456      5.61067     10.35284        -0.472723     -0.319783      0.125911
C      6.59456     15.36773     10.62556        -0.466426      0.526609      0.043873
C     14.38384      5.61067     10.62556         0.279526     -0.381360      0.117458
C     14.38384     15.36773     10.35284         0.870363      0.319837     -0.056392
C     10.40319      3.19606      7.29314         0.008744      0.685560     -0.377349
C     10.35913      4.25547      6.23373         0.010256     -0.519238      0.331965
C      0.08601      7.29314      7.29314        -0.018069     -0.708360     -0.553609
C      0.13007      6.23373      6.23373        -0.112369      0.856607      0.160049
C      0.08601      3.19606      3.19606        -0.024738      0.328774      0.361683
C      0.13007      4.25547      4.25547         0.055420     -0.170973     -0.657228
C     10.40319      7.29314      3.19606        -0.035329     -1.132120      1.035257
C     10.35913      6.23373      4.25547         0.022061      0.348099     -0.202207
C      7.29314     10.40319      3.19606        -0.835098     -0.045774      0.370755
C      6.23373     10.35913      4.25547         0.224514      0.043471     -0.469497
C      7.29314      0.08601      7.29314        -0.896786      0.008451     -0.404270
C      6.23373      0.13007      6.23373         0.114768      0.009284      0.090441
C      3.19606      0.08601      3.19606         0.380159     -0.002391      0.349382
C      4.25547      0.13007      4.25547        -0.257507     -0.047593     -0.178963
C      3.19606     10.40319      7.29314         0.492053     -0.044190     -1.138729
C      4.25547     10.35913      6.23373        -0.256969     -0.036618      0.128449
C      3.19606      7.29314     10.40319         0.772233     -0.479914      0.016029
C      4.25547      6.23373     10.35913        -0.109543      0.165823     -0.001539
C      7.29314      7.29314      0.08601        -0.404318     -0.277431     -0.012919
C      6.23373      6.23373      0.13007         0.354047      0.086600     -0.162686
C      3.19606      3.19606      0.08601         0.340117      0.674424     -0.013281
C      4.25547      4.25547      0.13007        -0.345619     -0.275114      0.033322
C      7.29314      3.19606     10.40319        -0.211948      0.606530      0.017364
C      6.23373      4.25547     10.35913         0.079148     -0.228153     -0.012179
O     10.43466      3.58206      8.50569        -0.023249      0.090574      0.343632
O     10.54374     17.39634      8.50569         0.072377     -0.023683      0.413353
O     10.54374      3.58206     12.47271         0.049201      0.201293     -0.554694
O     10.43466     17.39634     12.47271         0.040291      0.016696     -0.532728
O      8.50569     10.43466      3.58206         0.642118     -0.073243      0.090946
O      8.50569     10.54374     17.39634         0.872121      0.053780     -0.134396
O     12.47271     10.54374      3.58206        -0.357495      0.050637      0.037196
O     12.47271     10.43466     17.39634        -0.346397     -0.013275      0.076795
O      3.58206      8.50569     10.43466         0.000842      0.422226     -0.081409
O     17.39634      8.50569     10.54374        -0.126612      0.414013      0.027557
O      3.58206     12.47271     10.54374         0.128178     -0.667788     -0.007186
O     17.39634     12.47271     10.43466        -0.260939     -0.688084     -0.010257
O      3.58206     10.43466      8.50569         0.131535     -0.048326      0.860687
O     17.39634     10.54374      8.50569         0.015720      0.044638      0.318229
O      3.58206     10.54374     12.47271         0.058278      0.016160     -0.423444
O     17.39634     10.43466     12.47271        -0.056071      0.018048     -0.380879
O     10.43466      8.50569      3.58206        -0.068135      0.557391     -0.130708
O     10.54374      8.50569     17.39634         0.031600      0.753694     -0.133541
O     10.54374     12.47271      3.58206         0.053626     -0.359017      0.088387
O     10.43466     12.47271     17.39634        -0.064215     -0.725051     -0.239056
O      8.50569      3.58206     10.43466         0.324902      0.050926     -0.059375
O      8.50569     17.39634     10.54374         0.528952     -0.141089      0.020379
O     12.47271      3.58206     10.54374        -0.433266      0.108547      0.014830
O     12.47271     17.39634     10.43466        -0.601708     -0.082915      0.045965
O     11.90042     11.90042     19.56718        -0.251749     -0.281248      0.215680
O     19.56718     19.56718     19.56718         0.296579      0.298602      0.255053
O     19.56718     11.90042     11.90042         0.242597     -0.290130     -0.306636
O     11.90042     19.56718     11.90042        -0.289628      0.164233     -0.253185
O      9.45224      1.03696      9.45224        -0.106253      0.118058     -0.096833
O      1.03696      9.45224      9.45224         0.135613     -0.140996     -0.145199
O      1.03696      1.03696      1.03696         0.153923      0.191212     -0.033779
O      9.45224      9.45224      1.03696        -0.183804     -0.207798      0.025068
Zr     10.48920      2.52580     10.48920         0.028854     -0.248173      0.231903
Zr     10.48920     18.45260     10.48920        -0.240924      0.280648     -0.299959
Zr     10.48920     10.48920      2.52580         0.160142      0.507101     -0.184427
Zr     10.48920     10.48920     18.45260         0.001251     -0.119536      0.471842
Zr      2.52580     10.48920     10.48920        -0.504327      0.096073      0.400413
Zr     18.45260     10.48920     10.48920         0.235360     -0.175135      0.063490
Pd      9.12355     14.47679      9.12575        -0.082557      0.073721      0.082171
Pd      8.25381     13.26944     13.69705         0.085901     -0.085825     -0.042190
Pd     11.85720     14.46822      8.89756        -0.019200     -0.285347     -0.008650
Pd     12.23072     12.80102     10.87755         0.089670      0.034134      0.075615
Pd     11.93852      7.12039     12.29128        -0.034660      0.151848     -0.203244
Pd     10.96902     15.25923     11.27677        -0.058771      0.003541     -0.007166
Pd      9.50074     13.07362     11.33808         0.199247     -0.122147      0.026246
Pd     13.72587     12.63398      8.39222         0.289666     -0.006396     -0.051835
Pd     11.72593     11.67849      6.83935         0.198657     -0.075607     -0.103228
Pd      7.55268      8.32999      7.39875        -0.077044      0.125073     -0.065271
Pd      8.82847     11.92814      6.87497         0.034338     -0.111183      0.043302
Pd      9.83168      9.73793      8.06617         0.030886      0.093629      0.072186
Pd      8.50170     14.53978      6.45574        -0.040911      0.105032      0.088554
Pd     12.22052      8.95690      7.04742         0.094387     -0.002616     -0.056843
Pd     10.27762      9.93816      5.44481        -0.271375     -0.091745     -0.035883
Pd      6.86132      9.17117     12.26260         0.110350      0.060965     -0.050418
Pd     12.22038      6.40472      7.89319         0.101512      0.062251      0.064768
Pd      5.64995     10.54521      9.94856         0.030570     -0.045399      0.022490
Pd      7.62332      6.73102     13.03690         0.107962      0.008260     -0.063823
Ir     11.30199      9.62694     12.95301         0.237172     -0.074329     -0.043487
Ir     13.19608      9.21057     11.29156        -0.255407     -0.281894      0.061429
Ir      9.17165      8.56123     13.94986         0.012956     -0.194320      0.091146
Ir     10.27557     10.55626     15.11978         0.013831      0.082092      0.199810
Ir      7.03812     11.81122     11.76276         0.152942     -0.032439      0.044210
Ir     14.56286     11.11468     10.48097         0.019552      0.097594     -0.130297
Ir     12.43264     10.49162      9.23083        -0.192421      0.091523     -0.164133
Ir      8.88924     10.83070     12.93451        -0.166746      0.265425     -0.151193
Ir     10.04984     10.23029     10.71183        -0.039177      0.126886     -0.140939
Ir     13.27884     11.30720     12.63596         0.070568      0.077168      0.197329
Ir     11.05643     12.14066     13.28607        -0.053071      0.029866      0.004649
Ir      8.03977     11.60882      9.46903         0.114470     -0.225225     -0.060730
Ir     11.37896      8.09527      9.75238         0.114214      0.089552     -0.113281
Ir      6.99731     13.32307      8.18470        -0.161075      0.012217     -0.005920
Ir      9.21645      7.18867      9.05419         0.007911     -0.233713     -0.209859
Ir      7.86099      9.08871      9.87455        -0.189533      0.265662     -0.039659
Ir     10.48132     12.22256      8.97057        -0.072507      0.003349      0.312260
Ir      9.41848      7.86407     11.50637        -0.008453     -0.142449      0.113386
Ir     13.80615      8.21122      8.99513        -0.096058      0.302090      0.009289
