152
# total energy = -1022.84862398 eVH     10.35389      5.87395      7.64558         0.476703      0.030156      0.914075
H     10.62451     15.10445      7.64558        -0.042695      0.033654      0.761499
H     10.62451      5.87395     13.33282         0.141826      0.116234     -0.602246
H     10.35389     15.10445     13.33282        -0.269679     -0.074934     -0.569262
H      7.64558     10.35389      5.87395         0.335301     -0.037530      0.191511
H      7.64558     10.62451     15.10445         0.614411     -0.186506     -0.139677
H     13.33282     10.62451      5.87395        -0.857388     -0.319156      0.167710
H     13.33282     10.35389     15.10445        -0.469425     -0.094903     -0.056190
H      5.87395      7.64558     10.35389         0.122327      1.126783     -0.144841
H     15.10445      7.64558     10.62451        -0.168749      0.403479     -0.085781
H      5.87395     13.33282     10.62451         0.143354     -0.407533     -0.070771
H     15.10445     13.33282     10.35389        -0.077526     -0.967622     -0.198691
H      5.87395     10.35389      7.64558         0.129644      0.038568      0.482731
H     15.10445     10.62451      7.64558         0.127674     -0.214768      0.806765
H      5.87395     10.62451     13.33282         0.269314     -0.029207     -0.393453
H     15.10445     10.35389     13.33282        -0.144246      0.011323     -0.633389
H     10.35389      7.64558      5.87395         0.067531      0.839664      0.118800
H     10.62451      7.64558     15.10445         0.029136      0.553221     -0.143555
H     10.62451     13.33282      5.87395         0.071811     -0.604088      0.185967
H     10.35389     13.33282     15.10445        -0.254686     -0.888079     -0.106512
H      7.64558      5.87395     10.35389         0.529033      0.036628     -0.138758
H      7.64558     15.10445     10.62451         0.905003     -0.213864      0.299683
H     13.33282      5.87395     10.62451        -0.434758      0.186842     -0.058593
H     13.33282     15.10445     10.35389        -0.999608     -0.101024      0.240218
H     12.45634     12.45634     19.01126         0.267046      0.257818     -0.223903
H     19.01126     19.01126     19.01126        -0.248011     -0.234812     -0.262323
H     19.01126     12.45634     12.45634        -0.241918      0.270344      0.238900
H     12.45634     19.01126     12.45634         0.210662     -0.283549      0.252962
C     10.35284      5.61067      6.59456        -0.129148     -0.429780     -0.422683
C     10.62556     15.36773      6.59456         0.020670      0.347624     -1.140225
C     10.62556      5.61067     14.38384        -0.024414     -0.221360      0.719608
C     10.35284     15.36773     14.38384         0.189642      0.774045      0.136336
C      6.59456     10.35284      5.61067        -0.426887     -0.040614     -0.185905
C      6.59456     10.62556     15.36773        -0.787823      0.147438      0.350544
C     14.38384     10.62556      5.61067         0.638971      0.277739     -0.366879
C     14.38384     10.35284     15.36773         0.743439     -0.123397      0.433787
C      5.61067      6.59456     10.35284        -0.428227     -0.765238      0.268238
C     15.36773      6.59456     10.62556         0.194613     -0.470099      0.046706
C      5.61067     14.38384     10.62556        -0.253152      0.384617     -0.023131
C     15.36773     14.38384     10.35284         0.404201      0.139391      0.187308
C      5.61067     10.35284      6.59456        -0.307383     -0.012305     -0.888491
C     15.36773     10.62556      6.59456         0.563148     -0.147020     -1.230245
C      5.61067     10.62556     14.38384        -0.462549      0.007107      0.901376
C     15.36773     10.35284     14.38384         0.530752     -0.180892      1.253006
C     10.35284      6.59456      5.61067        -0.035533     -0.921655     -0.680407
C     10.62556      6.59456     15.36773         0.041121     -0.658766      0.298592
C     10.62556     14.38384      5.61067         0.042180      1.261531     -0.691274
C     10.35284     14.38384     15.36773         0.090295      0.592865      0.670662
C      6.59456      5.61067     10.35284        -0.229164     -0.893330      0.127488
C      6.59456     15.36773     10.62556        -1.726872      0.495892      0.044966
C     14.38384      5.61067     10.62556         0.577479     -0.222083     -0.006418
C     14.38384     15.36773     10.35284         0.162247      0.553423     -0.242980
C     10.40319      3.19606      7.29314         0.016747      0.923793     -0.254389
C     10.35913      4.25547      6.23373        -0.052703     -0.362503      0.625948
C      0.08601      7.29314      7.29314        -0.009362     -0.237078     -0.472329
C      0.13007      6.23373      6.23373         0.000453      0.114560      0.205469
C      0.08601      3.19606      3.19606        -0.017037      0.653302      0.179590
C      0.13007      4.25547      4.25547        -0.090407     -0.197936     -0.171446
C     10.40319      7.29314      3.19606        -0.001088     -0.697354      0.527152
C     10.35913      6.23373      4.25547        -0.005481      0.528145     -0.385790
C      7.29314     10.40319      3.19606        -0.349434      0.022733      0.849269
C      6.23373     10.35913      4.25547         0.215062      0.015626     -0.143949
C      7.29314      0.08601      7.29314        -0.310621     -0.046807     -0.269326
C      6.23373      0.13007      6.23373         0.266039     -0.059770      0.294564
C      3.19606      0.08601      3.19606         0.437183     -0.052636      1.304083
C      4.25547      0.13007      4.25547        -0.116907     -0.028790     -0.460317
C      3.19606     10.40319      7.29314         0.714063      0.014969     -0.262283
C      4.25547     10.35913      6.23373        -0.138250      0.035338      0.111287
C      3.19606      7.29314     10.40319         0.600590     -1.261715      0.026228
C      4.25547      6.23373     10.35913        -0.715008      0.837335      0.049510
C      7.29314      7.29314      0.08601        -0.663213     -0.170433     -0.022316
C      6.23373      6.23373      0.13007         0.173006      0.266815     -0.009172
C      3.19606      3.19606      0.08601         0.241620      0.252915     -0.019246
C      4.25547      4.25547      0.13007        -0.052378     -0.037319      0.012021
C      7.29314      3.19606     10.40319        -0.373760      0.786060      0.016369
C      6.23373      4.25547     10.35913         0.872961     -0.162571      0.012452
O     10.43466      3.58206      8.50569        -0.050615      0.028837      0.316673
O     10.54374     17.39634      8.50569        -0.025047     -0.182615      0.605490
O     10.54374      3.58206     12.47271         0.055181      0.060070     -0.321005
O     10.43466     17.39634     12.47271        -0.025030     -0.122909     -0.579218
O      8.50569     10.43466      3.58206         0.386236     -0.022981     -0.010364
O      8.50569     10.54374     17.39634         0.471381      0.053641     -0.142470
O     12.47271     10.54374      3.58206        -0.283892      0.049533     -0.079515
O     12.47271     10.43466     17.39634        -0.857727      0.021440     -0.224417
O      3.58206      8.50569     10.43466         0.040460      0.915844      0.038105
O     17.39634      8.50569     10.54374        -0.037817      0.336889      0.078720
O      3.58206     12.47271     10.54374         0.063216     -0.421103      0.063773
O     17.39634     12.47271     10.43466        -0.170295     -0.772827      0.019737
O      3.58206     10.43466      8.50569        -0.057667     -0.066376      0.222075
O     17.39634     10.54374      8.50569        -0.136144      0.042292      0.458812
O      3.58206     10.54374     12.47271        -0.023520     -0.050467     -0.891625
O     17.39634     10.43466     12.47271        -0.197778      0.041039     -0.759317
O     10.43466      8.50569      3.58206         0.044885      0.688393      0.193360
O     10.54374      8.50569     17.39634         0.053851      0.431489     -0.077833
O     10.54374     12.47271      3.58206        -0.010499     -0.733669      0.228893
O     10.43466     12.47271     17.39634         0.050525     -0.860710     -0.276588
O      8.50569      3.58206     10.43466         0.493837      0.077937     -0.038597
O      8.50569     17.39634     10.54374         0.659172     -0.253951     -0.062083
O     12.47271      3.58206     10.54374        -0.487293      0.163053      0.039997
O     12.47271     17.39634     10.43466        -0.526290     -0.038724     -0.029898
O     11.90042     11.90042     19.56718        -0.304740     -0.311965      0.263263
O     19.56718     19.56718     19.56718         0.287228      0.271462      0.321345
O     19.56718     11.90042     11.90042         0.280183     -0.330291     -0.243604
O     11.90042     19.56718     11.90042        -0.228878      0.291313     -0.240435
O      9.45224      1.03696      9.45224        -0.074501      0.049474     -0.066288
O      1.03696      9.45224      9.45224         0.055649     -0.145777     -0.057090
O      1.03696      1.03696      1.03696         0.042580      0.033377      0.188675
O      9.45224      9.45224      1.03696        -0.039826     -0.091984      0.123182
Zr     10.48920      2.52580     10.48920        -0.007762     -0.074970     -0.022913
Zr     10.48920     18.45260     10.48920         0.061061      0.307155     -0.069810
Zr     10.48920     10.48920      2.52580        -0.100486      0.010023     -0.375655
Zr     10.48920     10.48920     18.45260        -0.140031     -0.161842      0.329912
Zr      2.52580     10.48920     10.48920        -0.349728      0.315623     -0.465842
Zr     18.45260     10.48920     10.48920         0.236830      0.039261     -0.263619
Pd      9.04396     10.27054     13.34396        -0.024807     -0.021127     -0.007688
Pd     10.58099      9.72516     10.99042        -0.000024      0.004101     -0.068733
Pd     13.76927      8.55263     12.68378        -0.003594      0.011101     -0.004723
Pd     11.00026     11.08074     15.03768         0.003883     -0.031632     -0.024803
Pd     12.87005     11.20357     13.04821         0.020333      0.003510     -0.000253
Pd     14.97555     10.93487     11.34318         0.000669      0.017591     -0.013135
Pd      6.66485      7.43721     12.33633        -0.011089      0.021387      0.010989
Pd      9.21695      7.26861     10.14045         0.017535      0.014653     -0.036604
Pd      9.27632      7.62454     12.80810        -0.005689     -0.024726     -0.019250
Pd     11.69993      7.29885     11.46853         0.009205     -0.010717     -0.013244
Pd     11.37857      7.99962      8.85911         0.039581     -0.009320     -0.008863
Pd      7.26109     11.84104     11.96364         0.000058      0.001161     -0.017052
Pd      8.91230     14.68128      9.34299         0.042583      0.019791      0.018983
Pd      8.41583     12.66736     14.32807        -0.007251     -0.011360     -0.006203
Pd     13.52195     14.08203      8.56051         0.091778      0.035227     -0.046278
Pd     10.98339     13.33198      8.52601         0.096977      0.050716      0.045782
Pd     14.08006     11.51306      8.92390         0.010284      0.041438     -0.014712
Pd      8.63272     14.10980     12.10406         0.005632     -0.005274      0.000823
Pd     12.24256     13.75441     14.02796        -0.009554     -0.005681     -0.003046
Pd     11.17606     14.42278     11.15332         0.024487     -0.016236      0.058943
Pd     14.05643     13.56127     12.17053        -0.014052      0.017500     -0.007689
Pd     12.31268     12.12775     10.68617        -0.011219     -0.005454      0.023284
Pd     12.64818     12.31808      6.71514         0.031763      0.054641     -0.011360
Pd     13.64375      8.93306      7.91559         0.036876      0.007414     -0.008025
Pd      6.86171      8.47015      8.86111         0.009167      0.011867     -0.004711
Pd      5.52562      9.93896     11.26661         0.011413      0.035699     -0.055779
Pd      9.13189      9.76066      8.29796         0.055566     -0.035530     -0.011983
Pd      8.82840      7.24657      7.47988        -0.025513     -0.011543     -0.036259
Pd      9.52654     12.08379     10.43347         0.047787      0.004395      0.039675
Pd     11.52290     10.70831      8.57740         0.012643      0.004758     -0.054013
Pd     11.22924      9.25221      6.43368         0.039772     -0.024115     -0.008178
Pd      9.88554     11.56438      6.36979         0.041764     -0.035928      0.000397
Ir     11.36316      9.12239     13.36571         0.003225      0.016379     -0.011534
Ir     13.07191      9.47553     10.38752         0.009044     -0.008937      0.006773
Ir     10.53884     12.35806     12.72148        -0.004902     -0.006287     -0.016562
Ir      7.14303     10.99186      9.50970         0.023627      0.010929     -0.004163
Ir      8.41455     12.46805      8.19286         0.018318      0.007814     -0.025009
Ir      8.06516      9.31347     11.12524         0.005239      0.007860      0.004149
