35
# total energy = -301.57317697 eVC      6.68306     10.28999      7.65009         0.024817      0.080228      0.003509
C      8.06763      9.93598      7.57862         0.029054     -0.022169      0.007644
C      9.42376      5.70284      7.64984        -0.094006      0.004436     -0.000143
C      1.45868      5.35542      7.66832         0.089013     -0.003895      0.001462
C      4.19814      0.76687      7.63232        -0.025518     -0.079751      0.004622
C      2.81353      1.12105      7.56271        -0.022694      0.023017      0.014590
C      0.71109      4.16896      7.64381        -0.080791     -0.031715      0.003022
C      1.09971      2.79400      7.56924         0.020925     -0.023255      0.013651
C      5.36504      1.54490      7.64665        -0.000849      0.080568      0.001075
C      5.51566      9.51225      7.66985         0.006956     -0.076544      0.007326
C     10.17157      6.88930      7.64148         0.083566      0.021531      0.004160
C      9.78331      8.26444      7.57186        -0.029761      0.030184      0.016916
C      0.77079      6.58128      7.64907         0.016744     -0.039368     -0.003374
C      1.25448      7.92790      7.57999         0.018610      0.022005      0.006396
C     10.11170      4.47706      7.64280        -0.019496      0.036378      0.000497
C      9.62820      3.13066      7.56923        -0.022592     -0.030001      0.005511
C      4.27297     10.16970      7.65019         0.037439     -0.015833      0.002146
C      2.93836      9.65333      7.58077        -0.022328     -0.020883      0.004682
C      6.60800      0.88750      7.63768        -0.032747      0.020514      0.001685
C      7.94273      1.40391      7.56766         0.025848      0.024184      0.003910
N      8.80641      0.31054      7.48022         0.071956     -0.002505      0.004037
N      0.14063      8.76424      7.48587        -0.006833      0.068944      0.010138
N      8.53146      8.69576      7.59783         0.000566     -0.001439     -0.005879
N      2.35113      2.36161      7.58992         0.000872      0.000684     -0.004085
N      2.07459     10.74629      7.48893        -0.070934      0.002993      0.007199
N     10.74307      2.29469      7.48200         0.004051     -0.072606      0.007845
N      2.56575      8.33257      7.60068         0.047791     -0.043766     -0.003578
N      8.31641      2.72498      7.58523        -0.042814      0.044513     -0.007173
O      5.34070      2.87362      7.62882        -0.062605      0.028756     -0.010190
O      5.53982      8.18345      7.67588         0.072407     -0.026870      0.001358
O      8.09511      5.69251      7.62351        -0.040746      0.076005     -0.001925
O      2.78766      5.36469      7.67630         0.027897     -0.077978      0.003941
Zr      6.53870      4.45840      7.60058         0.031720     -0.028753     -0.019321
Zr      4.34553      6.59613      7.67596        -0.029448      0.039420      0.015925
Zr      0.02580     10.81094      6.86863        -0.006066     -0.007030     -0.097579
