35
# total energy = -301.58201746 eVC      6.68702     10.29577      7.65326        -0.007403     -0.006681      0.004522
C      8.07384      9.94424      7.58037        -0.003179      0.008614      0.002012
C      9.41782      5.71043      7.65039         0.003414     -0.007843     -0.002739
C      1.46302      5.34686      7.67021         0.000420      0.008473      0.001632
C      4.19549      0.76212      7.63600         0.002640      0.000099      0.000832
C      2.80829      1.11295      7.56624        -0.000920     -0.003086      0.000024
C      0.70459      4.16490      7.64623         0.005230      0.006882      0.005235
C      1.09067      2.78748      7.57268        -0.002205     -0.001192      0.000483
C      5.35845      1.54968      7.64616         0.002645     -0.003124     -0.004803
C      5.52392      9.50851      7.67390        -0.007084      0.001077      0.000736
C     10.17684      6.89228      7.64373        -0.000641     -0.003685      0.000237
C      9.79168      8.27020      7.57548        -0.003868      0.001491     -0.000910
C      0.77695      6.57635      7.64860        -0.008964      0.008516      0.002760
C      1.26237      7.92342      7.57921        -0.001845      0.002182      0.001072
C     10.10442      4.48095      7.64275         0.006524     -0.003959     -0.001203
C      9.61997      3.13417      7.56706         0.000297     -0.003161     -0.000987
C      4.27796     10.16432      7.65287        -0.007723      0.006675      0.003326
C      2.94343      9.64595      7.58068        -0.005193     -0.000256      0.002650
C      6.60440      0.89358      7.63795         0.009862     -0.006647     -0.001876
C      7.93894      1.41123      7.56417         0.002106      0.002266     -0.001074
N      8.80898      0.32129      7.47599         0.011888     -0.006745     -0.000732
N      0.15176      8.76641      7.48621        -0.007417      0.009302      0.000013
N      8.54050      8.70496      7.60186         0.010701     -0.007640     -0.003575
N      2.34155      2.35220      7.59491         0.000464      0.003274     -0.003249
N      2.07329     10.73532      7.48793        -0.012594      0.005944      0.000742
N     10.73153      2.29155      7.48093         0.006547     -0.010307     -0.000333
N      2.57564      8.32337      7.59967        -0.011035      0.006957     -0.002237
N      8.30683      2.73381      7.58055         0.008233     -0.008216     -0.007020
O      5.32874      2.87865      7.61833        -0.008954     -0.001128     -0.009837
O      5.55325      8.17925      7.68179         0.008407      0.001870      0.014205
O      8.08855      5.70753      7.61956         0.003685      0.008529     -0.009569
O      2.79262      5.34979      7.68220        -0.005624     -0.008331      0.011563
Zr      6.53824      4.45924      7.57810        -0.005809      0.011365     -0.023445
Zr      4.34290      6.59852      7.69300         0.013504     -0.009433      0.013825
Zr      0.02671     10.81049      6.85354         0.003892     -0.002080      0.007719
