152
# total energy = -1093.11049418 eVH     10.35389      5.87395      7.64558         0.162280     -0.129103      1.337818
H     10.62451     15.10445      7.64558        -0.166765      0.126980      1.425198
H     10.62451      5.87395     13.33282         0.166863     -0.063042     -1.190269
H     10.35389     15.10445     13.33282        -0.067435     -0.069250     -0.978289
H      7.64558     10.35389      5.87395         0.472171      0.013273     -0.053693
H      7.64558     10.62451     15.10445         0.415862      0.004598     -0.005031
H     13.33282     10.62451      5.87395        -0.661379     -0.037143     -0.004424
H     13.33282     10.35389     15.10445        -0.416019      0.010556      0.003012
H      5.87395      7.64558     10.35389        -0.139559      1.268511      0.155400
H     15.10445      7.64558     10.62451        -0.003625      0.535144      0.039883
H      5.87395     13.33282     10.62451        -0.060219     -0.242147      0.033800
H     15.10445     13.33282     10.35389         0.252366     -1.615293      0.080606
H      5.87395     10.35389      7.64558        -0.082605     -0.702608      0.461821
H     15.10445     10.62451      7.64558         0.520430      0.836456      0.038306
H      5.87395     10.62451     13.33282        -0.027165     -0.186239     -0.291559
H     15.10445     10.35389     13.33282        -0.099165      0.206976     -0.102983
H     10.35389      7.64558      5.87395        -0.196802      0.446061      0.035631
H     10.62451      7.64558     15.10445         0.061386      0.581161      0.230600
H     10.62451     13.33282      5.87395        -0.031245     -0.501317     -0.145604
H     10.35389     13.33282     15.10445        -0.166039     -0.483564      0.236867
H      7.64558      5.87395     10.35389         0.447455     -0.010200     -0.042821
H      7.64558     15.10445     10.62451         0.298094      0.021607     -0.035399
H     13.33282      5.87395     10.62451        -0.222266     -0.094048     -0.021079
H     13.33282     15.10445     10.35389        -0.508443      0.128112     -0.027831
H     12.45634     12.45634     19.01126         0.265065      0.247158     -0.244275
H     19.01126     19.01126     19.01126        -0.261702     -0.243227     -0.253154
H     19.01126     12.45634     12.45634        -0.262290      0.266126      0.232525
H     12.45634     19.01126     12.45634         0.274738     -0.254069      0.226556
C     10.35284      5.61067      6.59456        -0.231110     -0.267317     -1.747640
C     10.62556     15.36773      6.59456         0.426891      0.119038     -1.877580
C     10.62556      5.61067     14.38384        -0.321035     -0.108324      1.650523
C     10.35284     15.36773     14.38384         0.308414      0.129857      1.650569
C      6.59456     10.35284      5.61067        -0.825766     -0.104539     -0.297990
C      6.59456     10.62556     15.36773        -0.841523     -0.014291      0.095504
C     14.38384     10.62556      5.61067         1.039329      0.034676     -0.232668
C     14.38384     10.35284     15.36773         0.782939     -0.007935      0.190590
C      5.61067      6.59456     10.35284        -0.090572     -1.549014     -0.000321
C     15.36773      6.59456     10.62556         0.255150     -1.004764      0.032133
C      5.61067     14.38384     10.62556        -0.381755      0.749439      0.034900
C     15.36773     14.38384     10.35284         0.054949      1.856719     -0.058978
C      5.61067     10.35284      6.59456        -0.706939      0.246701     -1.783162
C     15.36773     10.62556      6.59456         0.773835     -0.207050     -2.008011
C      5.61067     10.62556     14.38384        -0.648346      0.092083      1.659525
C     15.36773     10.35284     14.38384         0.598166     -0.077019      1.417905
C     10.35284      6.59456      5.61067         0.029125     -1.583402     -0.793172
C     10.62556      6.59456     15.36773        -0.035489     -1.790699      0.768990
C     10.62556     14.38384      5.61067         0.110948      1.777324     -0.878409
C     10.35284     14.38384     15.36773         0.052066      1.906699      0.667881
C      6.59456      5.61067     10.35284        -0.771461     -0.796334     -0.012129
C      6.59456     15.36773     10.62556        -1.052169      0.565486      0.074805
C     14.38384      5.61067     10.62556         1.066259     -0.780125      0.099343
C     14.38384     15.36773     10.35284         0.881040      0.967482      0.004920
C     10.40319      3.19606      7.29314         0.001013      0.534424     -0.536573
C     10.35913      4.25547      6.23373        -0.025690     -0.843165      0.511973
C      0.08601      7.29314      7.29314         0.020462     -0.487112     -0.575326
C      0.13007      6.23373      6.23373         0.028319      0.886417      0.470091
C      0.08601      3.19606      3.19606         0.024461      0.706191      0.435101
C      0.13007      4.25547      4.25547        -0.040941     -0.765787     -0.492838
C     10.40319      7.29314      3.19606        -0.007373     -0.727917      0.502270
C     10.35913      6.23373      4.25547         0.021006      0.593475     -0.505360
C      7.29314     10.40319      3.19606        -0.304420     -0.009384      0.610859
C      6.23373     10.35913      4.25547         0.175211     -0.075895     -0.178415
C      7.29314      0.08601      7.29314        -0.233129     -0.030244     -0.391917
C      6.23373      0.13007      6.23373         0.151746     -0.093804      0.375076
C      3.19606      0.08601      3.19606         0.409311      0.010519      0.416984
C      4.25547      0.13007      4.25547        -0.190119      0.069979     -0.215042
C      3.19606     10.40319      7.29314         0.257188      0.025809     -0.485772
C      4.25547     10.35913      6.23373        -0.161039      0.101101      0.390790
C      3.19606      7.29314     10.40319         0.187272     -0.304336     -0.001643
C      4.25547      6.23373     10.35913        -0.553519      0.190429      0.041126
C      7.29314      7.29314      0.08601        -0.580313     -0.465441      0.005915
C      6.23373      6.23373      0.13007         0.121820      0.230615     -0.063297
C      3.19606      3.19606      0.08601         0.565272      0.409368     -0.000489
C      4.25547      4.25547      0.13007        -0.060512     -0.097620     -0.028867
C      7.29314      3.19606     10.40319        -0.210141      0.367225      0.001555
C      6.23373      4.25547     10.35913         0.625890     -0.259944      0.023955
O     10.43466      3.58206      8.50569         0.013090      0.229016      0.483107
O     10.54374     17.39634      8.50569        -0.029211     -0.228502      0.506335
O     10.54374      3.58206     12.47271         0.077718      0.152135     -0.368979
O     10.43466     17.39634     12.47271        -0.110644     -0.149260     -0.384164
O      8.50569     10.43466      3.58206         0.385113     -0.018998      0.053476
O      8.50569     10.54374     17.39634         0.451162      0.057781     -0.120612
O     12.47271     10.54374      3.58206        -0.514549     -0.009815      0.118978
O     12.47271     10.43466     17.39634        -0.436748     -0.054717     -0.114864
O      3.58206      8.50569     10.43466         0.170278      0.422276     -0.048483
O     17.39634      8.50569     10.54374        -0.082421      0.553699      0.046263
O      3.58206     12.47271     10.54374         0.046280     -0.507201      0.040274
O     17.39634     12.47271     10.43466        -0.175956     -0.465506     -0.020041
O      3.58206     10.43466      8.50569         0.184039     -0.015826      0.487412
O     17.39634     10.54374      8.50569        -0.120219     -0.009309      0.455958
O      3.58206     10.54374     12.47271         0.164787      0.081864     -0.441452
O     17.39634     10.43466     12.47271        -0.209005     -0.076889     -0.581136
O     10.43466      8.50569      3.58206         0.052548      0.609591      0.260935
O     10.54374      8.50569     17.39634         0.060885      0.516608     -0.220061
O     10.54374     12.47271      3.58206        -0.016046     -0.669379      0.282512
O     10.43466     12.47271     17.39634        -0.031119     -0.529815     -0.229232
O      8.50569      3.58206     10.43466         0.512230      0.148046     -0.030200
O      8.50569     17.39634     10.54374         0.608567     -0.095033      0.053008
O     12.47271      3.58206     10.54374        -0.634871      0.121981      0.024540
O     12.47271     17.39634     10.43466        -0.495886     -0.140875     -0.015052
O     11.90042     11.90042     19.56718        -0.309555     -0.285081      0.269147
O     19.56718     19.56718     19.56718         0.309668      0.272168      0.291874
O     19.56718     11.90042     11.90042         0.313060     -0.315019     -0.234323
O     11.90042     19.56718     11.90042        -0.334429      0.281376     -0.226581
O      9.45224      1.03696      9.45224        -0.041018      0.055119     -0.065051
O      1.03696      9.45224      9.45224         0.029741     -0.079802     -0.060170
O      1.03696      1.03696      1.03696         0.026257      0.048918      0.132860
O      9.45224      9.45224      1.03696        -0.035332     -0.084219      0.135236
Zr     10.48920      2.52580     10.48920        -0.104580     -0.119994     -0.006728
Zr     10.48920     18.45260     10.48920         0.132382      0.186270     -0.117208
Zr     10.48920     10.48920      2.52580         0.013096      0.089708     -0.322528
Zr     10.48920     10.48920     18.45260        -0.029140     -0.020079      0.147932
Zr      2.52580     10.48920     10.48920        -0.031410     -0.030370     -0.041046
Zr     18.45260     10.48920     10.48920         0.120274      0.114357     -0.175381
Pd     13.03217      8.07458      7.66278        -0.069320     -0.002613      0.020028
Pd      9.57424     14.60702     11.72259        -0.010261     -0.011042      0.004472
Pd     12.35165     10.92158     10.43595        -0.025038      0.046595     -0.026773
Pd     14.73766     10.07508     11.56266        -0.028978      0.007572      0.030247
Pd     11.02525      9.27929      6.18197        -0.033026      0.041020     -0.001710
Pd      6.99061      8.50112      9.03484        -0.106826     -0.013055     -0.052752
Ir     10.27712     11.87847     11.76131        -0.059668     -0.024006     -0.072071
Ir     12.97148      8.32057     10.33788        -0.088950     -0.056071      0.032042
Ir     12.30962     11.00397      7.72926         0.038966      0.040211      0.051123
Ir      9.66461     14.37233      9.12912         0.000837      0.021708      0.023811
Ir     10.84590      9.21219     11.73063        -0.029322     -0.042387      0.014533
Ir      8.72300     10.04726      7.77682        -0.022876     -0.028493      0.009552
Ir     13.86470     12.55296      9.02967        -0.035879     -0.023246     -0.037501
Ir     11.96313     13.58365      7.79474         0.005344     -0.002016      0.046226
Ir     14.31366      9.94634      9.02773         0.045207     -0.009422     -0.037612
Ir      9.26948      7.43181     10.42695         0.020739     -0.002484     -0.023531
Ir      8.14650     12.69685      7.83168         0.040341      0.019131     -0.021046
Ir      9.20882      7.58018      7.84607        -0.052844      0.009502      0.005361
Ir     11.86800     13.56732     13.01830        -0.032675      0.001020      0.006760
Ir     11.48271      6.72575     11.75479        -0.071792      0.022240     -0.057820
Ir     10.24643     11.80749      9.07745         0.038266      0.062085      0.039339
Ir     12.97229      8.38958     12.99397        -0.034984     -0.045424     -0.023376
Ir     10.86461      9.15465      8.99814        -0.003924      0.016995      0.048252
Ir     11.78056     13.60986     10.39594         0.018464     -0.038057     -0.013721
Ir     13.83939     12.66743     11.78302        -0.020369     -0.020281     -0.016047
Ir     12.39482     11.04770     13.09556         0.057167     -0.051396      0.016013
Ir     10.13994     11.68033      6.48424        -0.012449      0.006572      0.008302
Ir     11.37283      6.59467      9.23907        -0.021338      0.046626      0.019536
Ir      7.25020      8.35575     11.83822         0.004913     -0.025283     -0.059537
Ir      8.18451     12.70611     10.42977         0.067330      0.000559     -0.021086
Ir     10.94738      9.28998     14.28817        -0.032402      0.009053      0.035254
Ir      8.10350     12.56096     12.98691         0.002967     -0.048063      0.007259
Ir      6.57464     11.21079      9.10444         0.015260     -0.050821      0.038490
Ir      8.69633     10.06429     13.08240        -0.028599     -0.045509     -0.022436
Ir      6.62123     10.90066     11.56519        -0.052394     -0.013125     -0.018505
Ir      9.19780      7.48578     13.08150        -0.049433     -0.005371     -0.033325
Ir     10.21312     11.67543     14.36419         0.008486     -0.030481      0.030795
Ir      8.75365     10.05161     10.42470        -0.028683      0.021465     -0.024400
