152
# total energy = -1022.86710698 eVH     10.35389      5.87395      7.64558         0.472282      0.024725      0.884012
H     10.62451     15.10445      7.64558        -0.045285      0.043941      0.768484
H     10.62451      5.87395     13.33282         0.144899      0.116118     -0.608551
H     10.35389     15.10445     13.33282        -0.246435     -0.082744     -0.554212
H      7.64558     10.35389      5.87395         0.330094     -0.034605      0.189655
H      7.64558     10.62451     15.10445         0.617194     -0.192738     -0.142038
H     13.33282     10.62451      5.87395        -0.841234     -0.320930      0.171622
H     13.33282     10.35389     15.10445        -0.446160     -0.079248     -0.068758
H      5.87395      7.64558     10.35389         0.133756      1.105176     -0.172840
H     15.10445      7.64558     10.62451        -0.170660      0.403903     -0.086079
H      5.87395     13.33282     10.62451         0.143229     -0.408884     -0.072701
H     15.10445     13.33282     10.35389        -0.077370     -0.969683     -0.187014
H      5.87395     10.35389      7.64558         0.129078      0.041089      0.485075
H     15.10445     10.62451      7.64558         0.109458     -0.200398      0.827030
H      5.87395     10.62451     13.33282         0.265566     -0.031204     -0.393873
H     15.10445     10.35389     13.33282        -0.156447      0.016515     -0.619120
H     10.35389      7.64558      5.87395         0.062995      0.886179      0.109444
H     10.62451      7.64558     15.10445         0.025939      0.547936     -0.144520
H     10.62451     13.33282      5.87395         0.052801     -0.595341      0.181897
H     10.35389     13.33282     15.10445        -0.251923     -0.899063     -0.113182
H      7.64558      5.87395     10.35389         0.524865      0.046981     -0.132808
H      7.64558     15.10445     10.62451         0.923967     -0.207027      0.288489
H     13.33282      5.87395     10.62451        -0.438913      0.185726     -0.059552
H     13.33282     15.10445     10.35389        -1.017417     -0.102639      0.260454
H     12.45634     12.45634     19.01126         0.265962      0.257373     -0.225146
H     19.01126     19.01126     19.01126        -0.247431     -0.235263     -0.262151
H     19.01126     12.45634     12.45634        -0.240264      0.271081      0.239496
H     12.45634     19.01126     12.45634         0.210880     -0.282562      0.253067
C     10.35284      5.61067      6.59456        -0.109341     -0.449064     -0.378177
C     10.62556     15.36773      6.59456         0.019892      0.354233     -1.150605
C     10.62556      5.61067     14.38384        -0.031134     -0.217567      0.729258
C     10.35284     15.36773     14.38384         0.170455      0.774952      0.158860
C      6.59456     10.35284      5.61067        -0.408604     -0.040475     -0.178057
C      6.59456     10.62556     15.36773        -0.785660      0.152370      0.348570
C     14.38384     10.62556      5.61067         0.592018      0.292018     -0.370905
C     14.38384     10.35284     15.36773         0.717328     -0.118961      0.428029
C      5.61067      6.59456     10.35284        -0.423072     -0.730431      0.285557
C     15.36773      6.59456     10.62556         0.197796     -0.462779      0.047581
C      5.61067     14.38384     10.62556        -0.256242      0.381425     -0.025762
C     15.36773     14.38384     10.35284         0.406225      0.154832      0.187737
C      5.61067     10.35284      6.59456        -0.309897     -0.017391     -0.891750
C     15.36773     10.62556      6.59456         0.579711     -0.166075     -1.234512
C      5.61067     10.62556     14.38384        -0.453890      0.006998      0.883443
C     15.36773     10.35284     14.38384         0.517701     -0.182976      1.251104
C     10.35284      6.59456      5.61067        -0.035621     -0.944488     -0.663621
C     10.62556      6.59456     15.36773         0.043365     -0.650141      0.290182
C     10.62556     14.38384      5.61067         0.047665      1.233439     -0.692478
C     10.35284     14.38384     15.36773         0.109412      0.615847      0.641385
C      6.59456      5.61067     10.35284        -0.209294     -0.884089      0.130059
C      6.59456     15.36773     10.62556        -1.721401      0.490269      0.042073
C     14.38384      5.61067     10.62556         0.587555     -0.229568     -0.007881
C     14.38384     15.36773     10.35284         0.168291      0.555198     -0.243729
C     10.40319      3.19606      7.29314         0.014608      0.893668     -0.253596
C     10.35913      4.25547      6.23373        -0.056977     -0.369030      0.604286
C      0.08601      7.29314      7.29314        -0.009055     -0.240080     -0.468221
C      0.13007      6.23373      6.23373         0.001367      0.117733      0.206617
C      0.08601      3.19606      3.19606        -0.017019      0.648670      0.185767
C      0.13007      4.25547      4.25547        -0.089142     -0.199090     -0.168565
C     10.40319      7.29314      3.19606        -0.003018     -0.690954      0.524245
C     10.35913      6.23373      4.25547        -0.014323      0.495655     -0.421946
C      7.29314     10.40319      3.19606        -0.339262      0.023251      0.880069
C      6.23373     10.35913      4.25547         0.212508      0.012062     -0.145081
C      7.29314      0.08601      7.29314        -0.308716     -0.045895     -0.279395
C      6.23373      0.13007      6.23373         0.270340     -0.057878      0.295957
C      3.19606      0.08601      3.19606         0.442691     -0.051585      1.297310
C      4.25547      0.13007      4.25547        -0.116594     -0.026477     -0.462609
C      3.19606     10.40319      7.29314         0.696854      0.013993     -0.265928
C      4.25547     10.35913      6.23373        -0.134144      0.029452      0.102587
C      3.19606      7.29314     10.40319         0.606204     -1.269716      0.024158
C      4.25547      6.23373     10.35913        -0.715916      0.841386      0.051738
C      7.29314      7.29314      0.08601        -0.647988     -0.173882     -0.021811
C      6.23373      6.23373      0.13007         0.171868      0.270273     -0.007890
C      3.19606      3.19606      0.08601         0.241322      0.252205     -0.019416
C      4.25547      4.25547      0.13007        -0.056467     -0.037484      0.012292
C      7.29314      3.19606     10.40319        -0.371017      0.808719      0.015612
C      6.23373      4.25547     10.35913         0.877726     -0.163972      0.010225
O     10.43466      3.58206      8.50569        -0.049798      0.036861      0.325511
O     10.54374     17.39634      8.50569        -0.023702     -0.180519      0.600691
O     10.54374      3.58206     12.47271         0.054501      0.060683     -0.324252
O     10.43466     17.39634     12.47271        -0.023331     -0.126516     -0.583674
O      8.50569     10.43466      3.58206         0.373877     -0.025380     -0.018294
O      8.50569     10.54374     17.39634         0.470562      0.052726     -0.142288
O     12.47271     10.54374      3.58206        -0.289564      0.048369     -0.074873
O     12.47271     10.43466     17.39634        -0.849632      0.019418     -0.226155
O      3.58206      8.50569     10.43466         0.042692      0.923256      0.038954
O     17.39634      8.50569     10.54374        -0.041671      0.341224      0.078176
O      3.58206     12.47271     10.54374         0.063500     -0.420760      0.064187
O     17.39634     12.47271     10.43466        -0.170499     -0.784766      0.021461
O      3.58206     10.43466      8.50569        -0.054267     -0.065910      0.227442
O     17.39634     10.54374      8.50569        -0.136674      0.043702      0.463947
O      3.58206     10.54374     12.47271        -0.020479     -0.050279     -0.890345
O     17.39634     10.43466     12.47271        -0.198124      0.046410     -0.773497
O     10.43466      8.50569      3.58206         0.044595      0.677326      0.189667
O     10.54374      8.50569     17.39634         0.053321      0.438554     -0.081046
O     10.54374     12.47271      3.58206        -0.008268     -0.734638      0.225989
O     10.43466     12.47271     17.39634         0.046921     -0.844950     -0.272283
O      8.50569      3.58206     10.43466         0.487266      0.072531     -0.038149
O      8.50569     17.39634     10.54374         0.648317     -0.250423     -0.059570
O     12.47271      3.58206     10.54374        -0.484035      0.163730      0.039765
O     12.47271     17.39634     10.43466        -0.526961     -0.035982     -0.029084
O     11.90042     11.90042     19.56718        -0.304232     -0.312176      0.265134
O     19.56718     19.56718     19.56718         0.286167      0.272675      0.321327
O     19.56718     11.90042     11.90042         0.277066     -0.330565     -0.243763
O     11.90042     19.56718     11.90042        -0.229602      0.290453     -0.241211
O      9.45224      1.03696      9.45224        -0.075226      0.048058     -0.066481
O      1.03696      9.45224      9.45224         0.053397     -0.145002     -0.058795
O      1.03696      1.03696      1.03696         0.041214      0.034677      0.188221
O      9.45224      9.45224      1.03696        -0.042074     -0.091310      0.123620
Zr     10.48920      2.52580     10.48920        -0.005607     -0.074908     -0.025513
Zr     10.48920     18.45260     10.48920         0.057498      0.303844     -0.073594
Zr     10.48920     10.48920      2.52580        -0.094966      0.011617     -0.373325
Zr     10.48920     10.48920     18.45260        -0.133312     -0.151400      0.327939
Zr      2.52580     10.48920     10.48920        -0.355636      0.315285     -0.461994
Zr     18.45260     10.48920     10.48920         0.247978      0.031287     -0.271870
Pd      9.03608     10.25263     13.32664        -0.017243     -0.012215      0.009796
Pd     10.57609      9.72096     10.96212         0.016666     -0.008382     -0.042780
Pd     13.77128      8.53424     12.69395         0.002863     -0.003019     -0.008110
Pd     11.00332     11.07031     15.00810        -0.004405     -0.012494      0.004833
Pd     12.86005     11.17132     13.00052         0.022096      0.010900      0.015547
Pd     14.99989     10.93735     11.34474         0.003491      0.022176     -0.011098
Pd      6.65196      7.44113     12.34328        -0.006694      0.025506      0.000251
Pd      9.23389      7.26610     10.10965         0.005324      0.014107     -0.035202
Pd      9.26967      7.60152     12.78748         0.003267     -0.014238     -0.018633
Pd     11.70376      7.28885     11.46514        -0.000858      0.002222     -0.017883
Pd     11.42006      7.99212      8.86372         0.033768      0.004920     -0.016251
Pd      7.25947     11.83476     11.95400         0.002580     -0.012217     -0.022088
Pd      8.89740     14.67109      9.32714         0.040372     -0.002464      0.016011
Pd      8.41807     12.64994     14.32057        -0.004870     -0.007265      0.005179
Pd     13.52466     14.10475      8.55938         0.079905      0.023659     -0.038666
Pd     10.98527     13.33430      8.51514         0.066646      0.034832      0.035206
Pd     14.10465     11.53664      8.93306        -0.001917      0.019999     -0.009155
Pd      8.62043     14.10361     12.10098         0.007849      0.000314      0.001469
Pd     12.24250     13.70930     14.03075        -0.011146     -0.000989      0.002263
Pd     11.15345     14.43082     11.14623         0.032612     -0.003228      0.045706
Pd     14.04823     13.55303     12.16752        -0.010809      0.018416     -0.001734
Pd     12.30260     12.14873     10.66550         0.017842     -0.027529      0.003394
Pd     12.68622     12.34831      6.71247         0.018324      0.036530     -0.016981
Pd     13.68950      8.94023      7.94419         0.028048      0.001258      0.002521
Pd      6.87233      8.47080      8.84520         0.013447      0.019939      0.002797
Pd      5.52447      9.94432     11.25138         0.025698      0.025184     -0.055026
Pd      9.16658      9.75285      8.31875         0.021285     -0.028867     -0.013779
Pd      8.82829      7.26078      7.44394        -0.029017     -0.020180     -0.026414
Pd      9.52380     12.08327     10.41928         0.007873      0.007770     -0.031249
Pd     11.56179     10.70878      8.55363         0.021703      0.004736     -0.025109
Pd     11.26775      9.21498      6.44147         0.039647     -0.019149     -0.012123
Pd      9.92818     11.53421      6.37286         0.032267     -0.019490      0.001179
Ir     11.35047      9.10870     13.34267        -0.000532     -0.003395     -0.015258
Ir     13.07952      9.49534     10.40676         0.007853      0.006239     -0.026152
Ir     10.52941     12.35116     12.70291         0.010355     -0.013368      0.038410
Ir      7.15195     10.98965      9.49945         0.036302     -0.033408      0.015150
Ir      8.42048     12.45344      8.16776         0.078957      0.030957     -0.004209
Ir      8.06398      9.29532     11.11302        -0.023297      0.022017     -0.022731
