152
# total energy = -1024.12771253 eVH     10.35389      5.87395      7.64558         0.542466      0.060521      0.778341
H     10.62451     15.10445      7.64558         0.023977     -0.170548      0.547328
H     10.62451      5.87395     13.33282         0.144387      0.159871     -0.648594
H     10.35389     15.10445     13.33282        -0.366922     -0.072572     -0.727706
H      7.64558     10.35389      5.87395         0.327638     -0.008781      0.189322
H      7.64558     10.62451     15.10445         0.922149     -0.352754     -0.009191
H     13.33282     10.62451      5.87395        -0.739654      0.000737      0.181568
H     13.33282     10.35389     15.10445        -0.866847     -0.371348      0.184790
H      5.87395      7.64558     10.35389         0.213085      0.632206     -0.018161
H     15.10445      7.64558     10.62451        -0.146772      0.406918     -0.045511
H      5.87395     13.33282     10.62451         0.169435     -0.491254     -0.090214
H     15.10445     13.33282     10.35389        -0.111885     -1.107381      0.014050
H      5.87395     10.35389      7.64558         0.141096      0.118015      0.457573
H     15.10445     10.62451      7.64558         0.059604      0.132559      1.075245
H      5.87395     10.62451     13.33282         0.108448     -0.025735     -0.393409
H     15.10445     10.35389     13.33282        -0.087098     -0.156540     -0.630383
H     10.35389      7.64558      5.87395         0.085715      0.868052      0.206462
H     10.62451      7.64558     15.10445         0.017136      0.288519     -0.180184
H     10.62451     13.33282      5.87395        -0.054615     -0.542748      0.275947
H     10.35389     13.33282     15.10445        -0.483691     -0.683478     -0.051099
H      7.64558      5.87395     10.35389         0.473465      0.116405      0.059089
H      7.64558     15.10445     10.62451         0.843900     -0.273283     -0.012314
H     13.33282      5.87395     10.62451        -0.518909      0.170220     -0.070034
H     13.33282     15.10445     10.35389        -0.632142     -0.062187      0.228511
H     12.45634     12.45634     19.01126         0.240596      0.278873     -0.231093
H     19.01126     19.01126     19.01126        -0.254718     -0.241251     -0.247555
H     19.01126     12.45634     12.45634        -0.254909      0.273108      0.222519
H     12.45634     19.01126     12.45634         0.226811     -0.262262      0.245509
C     10.35284      5.61067      6.59456        -0.165293     -0.600943      0.047712
C     10.62556     15.36773      6.59456         0.001077      0.438318     -0.750506
C     10.62556      5.61067     14.38384        -0.042993     -0.101758      0.773775
C     10.35284     15.36773     14.38384         0.147964      0.683173      0.201434
C      6.59456     10.35284      5.61067        -0.387670     -0.030715     -0.254353
C      6.59456     10.62556     15.36773        -1.044476      0.361370      0.407362
C     14.38384     10.62556      5.61067         0.403803      0.292677     -0.589241
C     14.38384     10.35284     15.36773         0.999383     -0.029986      0.393651
C      5.61067      6.59456     10.35284        -0.384549     -0.502561      0.236565
C     15.36773      6.59456     10.62556         0.183542     -0.531928      0.028501
C      5.61067     14.38384     10.62556        -0.141471      0.506385     -0.000943
C     15.36773     14.38384     10.35284         0.348292     -0.035025     -0.125941
C      5.61067     10.35284      6.59456        -0.297017     -0.047024     -0.851947
C     15.36773     10.62556      6.59456         0.697185     -0.319898     -1.142615
C      5.61067     10.62556     14.38384        -0.505854     -0.013419      0.237748
C     15.36773     10.35284     14.38384         0.662122     -0.123999      1.138254
C     10.35284      6.59456      5.61067        -0.259064     -0.465074     -0.785585
C     10.62556      6.59456     15.36773         0.051179     -0.291910      0.117188
C     10.62556     14.38384      5.61067         0.158156      1.145836     -0.409550
C     10.35284     14.38384     15.36773         0.207907      0.148799      0.653306
C      6.59456      5.61067     10.35284        -0.382502     -0.739049      0.060477
C      6.59456     15.36773     10.62556        -1.232057      0.293145      0.074769
C     14.38384      5.61067     10.62556         0.773708     -0.257650      0.022298
C     14.38384     15.36773     10.35284        -0.513582      0.736073     -0.345486
C     10.40319      3.19606      7.29314        -0.011390      0.865825     -0.397660
C     10.35913      4.25547      6.23373         0.029465     -0.488121      0.582267
C      0.08601      7.29314      7.29314        -0.009496     -0.493839     -0.394801
C      0.13007      6.23373      6.23373        -0.020549      0.024764      0.097745
C      0.08601      3.19606      3.19606        -0.017461      1.057074      0.189676
C      0.13007      4.25547      4.25547        -0.063613     -0.213689     -0.249472
C     10.40319      7.29314      3.19606        -0.003438     -0.915985      0.469990
C     10.35913      6.23373      4.25547         0.025913      0.475598     -0.615352
C      7.29314     10.40319      3.19606        -0.444320      0.043711      0.830341
C      6.23373     10.35913      4.25547         0.243927      0.091309     -0.118326
C      7.29314      0.08601      7.29314        -0.476195     -0.026956     -0.252601
C      6.23373      0.13007      6.23373         0.407480     -0.061495      0.441583
C      3.19606      0.08601      3.19606         0.741555     -0.019224      0.365762
C      4.25547      0.13007      4.25547        -0.107550     -0.055764     -0.426283
C      3.19606     10.40319      7.29314         0.615062     -0.002521     -0.710876
C      4.25547     10.35913      6.23373        -0.249973      0.108691      0.231274
C      3.19606      7.29314     10.40319         0.505819     -1.333986     -0.035368
C      4.25547      6.23373     10.35913        -0.385488      0.835744      0.038841
C      7.29314      7.29314      0.08601        -0.494286     -0.233870     -0.013023
C      6.23373      6.23373      0.13007         0.170766      0.147002     -0.009499
C      3.19606      3.19606      0.08601         0.245492      0.277291     -0.021744
C      4.25547      4.25547      0.13007        -0.079239     -0.041282      0.016100
C      7.29314      3.19606     10.40319        -0.362085      0.724770      0.015062
C      6.23373      4.25547     10.35913         1.111270      0.065576      0.004789
O     10.43466      3.58206      8.50569        -0.032099      0.042030      0.443926
O     10.54374     17.39634      8.50569        -0.017732     -0.093181      0.462422
O     10.54374      3.58206     12.47271         0.052839     -0.050053     -0.183770
O     10.43466     17.39634     12.47271        -0.044182     -0.074725     -0.540382
O      8.50569     10.43466      3.58206         0.381536     -0.018565     -0.026334
O      8.50569     10.54374     17.39634         0.581971      0.028969     -0.160325
O     12.47271     10.54374      3.58206        -0.664680     -0.024478      0.160448
O     12.47271     10.43466     17.39634        -0.565254     -0.028251     -0.068838
O      3.58206      8.50569     10.43466         0.180108      1.133060      0.000347
O     17.39634      8.50569     10.54374        -0.059518      0.387941      0.069876
O      3.58206     12.47271     10.54374         0.075870     -0.451097      0.035131
O     17.39634     12.47271     10.43466        -0.156244     -0.724660      0.014037
O      3.58206     10.43466      8.50569         0.007503     -0.072645      0.584085
O     17.39634     10.54374      8.50569        -0.099831      0.041562      0.368973
O      3.58206     10.54374     12.47271         0.032173      0.015080     -0.366929
O     17.39634     10.43466     12.47271        -0.211003      0.022825     -0.722536
O     10.43466      8.50569      3.58206         0.082900      0.813191      0.188899
O     10.54374      8.50569     17.39634         0.060724      0.659379     -0.146255
O     10.54374     12.47271      3.58206        -0.048322     -0.970655      0.244682
O     10.43466     12.47271     17.39634        -0.005188     -0.934470     -0.210820
O      8.50569      3.58206     10.43466         0.513287      0.088501     -0.022982
O      8.50569     17.39634     10.54374         0.594683     -0.232893     -0.030177
O     12.47271      3.58206     10.54374        -0.463004      0.145118      0.054348
O     12.47271     17.39634     10.43466        -0.398644      0.044437     -0.013652
O     11.90042     11.90042     19.56718        -0.269682     -0.332788      0.254981
O     19.56718     19.56718     19.56718         0.287443      0.276459      0.292689
O     19.56718     11.90042     11.90042         0.279964     -0.313171     -0.203662
O     11.90042     19.56718     11.90042        -0.270039      0.286709     -0.263180
O      9.45224      1.03696      9.45224        -0.082141      0.051946     -0.056688
O      1.03696      9.45224      9.45224         0.053199     -0.162459     -0.101629
O      1.03696      1.03696      1.03696         0.013615      0.083142      0.195548
O      9.45224      9.45224      1.03696        -0.057183     -0.082313      0.133722
Zr     10.48920      2.52580     10.48920        -0.020178     -0.090460     -0.152704
Zr     10.48920     18.45260     10.48920         0.055585      0.254186      0.013819
Zr     10.48920     10.48920      2.52580         0.010147     -0.168553     -0.535275
Zr     10.48920     10.48920     18.45260        -0.146316      0.044051      0.474166
Zr      2.52580     10.48920     10.48920        -0.372479      0.304517      0.117386
Zr     18.45260     10.48920     10.48920         0.209368      0.039069     -0.285087
Pd      8.59900      9.89080     13.29374         0.122834     -0.034535     -0.016599
Pd     10.54874      9.50277     10.34221        -0.060539      0.115634     -0.186040
Pd     13.43838      8.73892     12.51480         0.083663     -0.045715     -0.021512
Pd     10.66762     10.64102     15.11974        -0.135337     -0.015999      0.001454
Pd     13.00995     11.31910     13.43378         0.028629      0.013453      0.121096
Pd     14.99206     10.79069     11.28733        -0.111704     -0.071197     -0.052851
Pd      6.75320      7.92521     12.56791        -0.025118      0.052994     -0.094453
Pd      9.26069      7.19235      9.63225         0.044638      0.080604      0.064719
Pd      9.38430      7.47176     12.40949         0.139430      0.101088     -0.124009
Pd     11.68967      7.23510     11.10876         0.093132     -0.085247      0.066932
Pd     11.68356      7.83327      8.48337        -0.101362     -0.000897     -0.059707
Pd      7.24479     11.70975     11.62239        -0.081229      0.078731      0.056123
Pd      9.30194     14.47083      9.45999        -0.088555      0.102644      0.069905
Pd      8.16527     12.37976     14.20777         0.067461      0.075258     -0.000018
Pd     14.16395     14.21772      8.34068         0.038687     -0.034736     -0.038290
Pd     11.68325     13.41342      8.88792        -0.066075      0.074795      0.045036
Pd     14.04266     11.63358      8.92723         0.122206      0.054086      0.001595
Pd      8.75494     13.91666     12.15303         0.114134     -0.047827      0.000731
Pd     12.20773     13.83378     14.05016        -0.006632     -0.022295     -0.057064
Pd     11.42710     14.10438     11.45554        -0.054736     -0.067239     -0.045421
Pd     14.07003     13.44692     12.15706        -0.009435      0.023415      0.006465
Pd     12.34665     11.64081     10.91918         0.047190      0.042117      0.003506
Pd     12.80340     12.63871      6.63706        -0.011791     -0.060862     -0.043266
Pd     13.93489      8.91027      7.68090         0.033005      0.029745     -0.127951
Pd      6.98943      8.43477      8.55156        -0.055336     -0.157338     -0.112108
Pd      5.61901     10.03065     10.24528        -0.288899     -0.012325      0.076724
Pd      9.38487      9.37873      7.65979         0.003094      0.120774      0.017619
Pd      8.49190      6.89482      7.04732        -0.040289      0.019957     -0.099678
Pd      9.72060     11.96336     10.57682        -0.072701     -0.067492     -0.279391
Pd     11.62286     10.73519      8.19630         0.086617     -0.110491      0.023044
Pd     11.67994      9.05417      6.08735         0.045458     -0.051974     -0.099852
Pd     10.24672     11.32173      5.89762         0.055424      0.041856     -0.057484
Ir     11.06981      9.54914     12.78535        -0.106925     -0.065556      0.138296
Ir     13.19062      9.34707     10.04893        -0.038393     -0.002429      0.032516
Ir     10.51967     12.02003     12.94298        -0.070910      0.230958      0.036792
Ir      7.76101     10.94084      9.13043         0.307605      0.502999     -0.434725
Ir      9.39397     12.31283      8.04516        -0.220336     -0.411374      0.269359
Ir      8.09775      9.23934     10.84375         0.052696     -0.361677      0.414143
