152
# total energy = -1061.44723194 eVH     10.35389      5.87395      7.64558        -0.206859      0.127963      1.031824
H     10.62451     15.10445      7.64558         0.444358     -0.117027      0.782857
H     10.62451      5.87395     13.33282        -0.091282      0.099604     -0.454174
H     10.35389     15.10445     13.33282         0.089614     -0.189385     -0.402883
H      7.64558     10.35389      5.87395         0.883154      0.199825      0.222065
H      7.64558     10.62451     15.10445         0.210757     -0.022770     -0.072077
H     13.33282     10.62451      5.87395        -0.597474     -0.051014      0.166889
H     13.33282     10.35389     15.10445        -0.323326     -0.055937     -0.076303
H      5.87395      7.64558     10.35389         0.127456      0.361390     -0.078189
H     15.10445      7.64558     10.62451        -0.137792      0.444446      0.179092
H      5.87395     13.33282     10.62451         0.106362     -0.637392      0.117957
H     15.10445     13.33282     10.35389        -0.229268     -0.436736      0.091874
H      5.87395     10.35389      7.64558         0.157291      0.280631      0.385938
H     15.10445     10.62451      7.64558        -0.138947     -0.365186      0.738818
H      5.87395     10.62451     13.33282         0.036540      0.152544     -0.705280
H     15.10445     10.35389     13.33282         0.076905     -0.247549     -0.734643
H     10.35389      7.64558      5.87395        -0.159342      0.446726      0.215252
H     10.62451      7.64558     15.10445         0.370633      0.614151     -0.119794
H     10.62451     13.33282      5.87395         0.082909     -0.557055      0.102163
H     10.35389     13.33282     15.10445         0.259689     -0.715418     -0.088586
H      7.64558      5.87395     10.35389         0.485698      0.145324     -0.154084
H      7.64558     15.10445     10.62451         0.397748     -0.146581      0.435667
H     13.33282      5.87395     10.62451        -0.389303      0.160504     -0.075814
H     13.33282     15.10445     10.35389        -0.581254     -0.293708      0.118343
H     12.45634     12.45634     19.01126         0.230578      0.265713     -0.248996
H     19.01126     19.01126     19.01126        -0.261690     -0.259147     -0.230487
H     19.01126     12.45634     12.45634        -0.234328      0.276164      0.235366
H     12.45634     19.01126     12.45634         0.276236     -0.210526      0.255991
C     10.35284      5.61067      6.59456         0.277447     -0.305975     -0.785826
C     10.62556     15.36773      6.59456        -0.188300      0.638119     -0.295151
C     10.62556      5.61067     14.38384         0.253649     -0.237102      0.487398
C     10.35284     15.36773     14.38384        -0.112285      0.275381      0.275538
C      6.59456     10.35284      5.61067        -0.833334     -0.097526     -0.240957
C      6.59456     10.62556     15.36773        -0.513231      0.046124      0.344108
C     14.38384     10.62556      5.61067         0.788940     -0.032329     -0.633629
C     14.38384     10.35284     15.36773         0.266561     -0.072777      0.349051
C      5.61067      6.59456     10.35284        -0.404913     -0.355305      0.079644
C     15.36773      6.59456     10.62556         0.314441     -0.479005     -0.068406
C      5.61067     14.38384     10.62556        -0.150780      0.495709     -0.405934
C     15.36773     14.38384     10.35284         0.412907      0.834982     -0.096752
C      5.61067     10.35284      6.59456        -0.315944     -0.173067     -0.109179
C     15.36773     10.62556      6.59456         0.211785      0.283051     -0.579733
C      5.61067     10.62556     14.38384        -0.341038     -0.041262      1.208875
C     15.36773     10.35284     14.38384         0.290473     -0.063469      0.992772
C     10.35284      6.59456      5.61067         0.080808     -0.244200     -0.508328
C     10.62556      6.59456     15.36773         0.012292     -0.783536      0.118598
C     10.62556     14.38384      5.61067        -0.384052      0.181409     -0.924965
C     10.35284     14.38384     15.36773        -0.260181      0.836401      0.269754
C      6.59456      5.61067     10.35284        -0.352730     -0.290088      0.257669
C      6.59456     15.36773     10.62556        -0.269176      0.518869     -0.060927
C     14.38384      5.61067     10.62556         0.474072     -0.375326      0.059669
C     14.38384     15.36773     10.35284         0.974171      0.270505     -0.064807
C     10.40319      3.19606      7.29314         0.008410      0.549657     -0.317000
C     10.35913      4.25547      6.23373        -0.013115     -0.529174      0.411276
C      0.08601      7.29314      7.29314        -0.015100     -0.843240     -0.564722
C      0.13007      6.23373      6.23373        -0.190887      0.878297      0.151675
C      0.08601      3.19606      3.19606        -0.010182      0.413966      0.388038
C      0.13007      4.25547      4.25547         0.066337     -0.229365     -0.570452
C     10.40319      7.29314      3.19606        -0.046827     -1.032345      0.782000
C     10.35913      6.23373      4.25547         0.017377      0.338948     -0.230877
C      7.29314     10.40319      3.19606        -1.321868     -0.084904      0.323791
C      6.23373     10.35913      4.25547         0.264377      0.018748     -0.700502
C      7.29314      0.08601      7.29314        -0.828213     -0.002138     -0.410453
C      6.23373      0.13007      6.23373         0.327452      0.053261      0.126454
C      3.19606      0.08601      3.19606         0.322387      0.000139      0.430240
C      4.25547      0.13007      4.25547        -0.283818     -0.032757     -0.177725
C      3.19606     10.40319      7.29314         0.494238     -0.040936     -1.035416
C      4.25547     10.35913      6.23373        -0.322081     -0.075153      0.096813
C      3.19606      7.29314     10.40319         1.085743     -0.443880      0.011595
C      4.25547      6.23373     10.35913        -0.194844      0.166067     -0.000188
C      7.29314      7.29314      0.08601        -0.504952     -0.281742     -0.007430
C      6.23373      6.23373      0.13007         0.170892      0.175736     -0.155388
C      3.19606      3.19606      0.08601         0.356737      0.881315     -0.008851
C      4.25547      4.25547      0.13007        -0.582315     -0.183251      0.038469
C      7.29314      3.19606     10.40319        -0.197916      0.496032      0.026502
C      6.23373      4.25547     10.35913        -0.010888     -0.368740      0.043503
O     10.43466      3.58206      8.50569        -0.023276      0.133225      0.390571
O     10.54374     17.39634      8.50569         0.041322      0.052730      0.366314
O     10.54374      3.58206     12.47271         0.041018      0.194570     -0.574852
O     10.43466     17.39634     12.47271         0.029180     -0.016779     -0.468536
O      8.50569     10.43466      3.58206         0.768009     -0.059884     -0.025961
O      8.50569     10.54374     17.39634         0.852267      0.022391     -0.161856
O     12.47271     10.54374      3.58206        -0.348620      0.036730      0.082880
O     12.47271     10.43466     17.39634        -0.377097     -0.036721      0.040142
O      3.58206      8.50569     10.43466        -0.104357      0.260390     -0.079030
O     17.39634      8.50569     10.54374        -0.105864      0.446681      0.043304
O      3.58206     12.47271     10.54374         0.150133     -0.822516     -0.022371
O     17.39634     12.47271     10.43466        -0.238747     -0.633437     -0.015877
O      3.58206     10.43466      8.50569         0.127364     -0.031815      0.795016
O     17.39634     10.54374      8.50569         0.000906      0.035850      0.340569
O      3.58206     10.54374     12.47271         0.066943      0.017912     -0.457799
O     17.39634     10.43466     12.47271         0.055130      0.012659     -0.239151
O     10.43466      8.50569      3.58206        -0.055552      0.559937     -0.070559
O     10.54374      8.50569     17.39634         0.029250      0.865005     -0.204086
O     10.54374     12.47271      3.58206         0.070045     -0.369475      0.074537
O     10.43466     12.47271     17.39634        -0.055191     -0.643365     -0.198595
O      8.50569      3.58206     10.43466         0.350246      0.083101     -0.052437
O      8.50569     17.39634     10.54374         0.561602     -0.166676     -0.017214
O     12.47271      3.58206     10.54374        -0.366617      0.049822      0.036254
O     12.47271     17.39634     10.43466        -0.834549     -0.144090      0.072482
O     11.90042     11.90042     19.56718        -0.243486     -0.283208      0.237352
O     19.56718     19.56718     19.56718         0.300466      0.293233      0.250226
O     19.56718     11.90042     11.90042         0.228784     -0.305476     -0.275989
O     11.90042     19.56718     11.90042        -0.274432      0.180042     -0.276266
O      9.45224      1.03696      9.45224        -0.107511      0.086490     -0.085919
O      1.03696      9.45224      9.45224         0.124396     -0.148763     -0.174538
O      1.03696      1.03696      1.03696         0.139158      0.208716     -0.002596
O      9.45224      9.45224      1.03696        -0.212368     -0.170961      0.030192
Zr     10.48920      2.52580     10.48920        -0.005159     -0.232613      0.148305
Zr     10.48920     18.45260     10.48920        -0.303921      0.308205     -0.152586
Zr     10.48920     10.48920      2.52580         0.363482      0.392259     -0.231860
Zr     10.48920     10.48920     18.45260        -0.001779      0.020554      0.469597
Zr      2.52580     10.48920     10.48920        -0.557848      0.020290      0.343502
Zr     18.45260     10.48920     10.48920         0.273920     -0.143866      0.002377
Pd      9.21843     14.65788      9.22081        -0.004679      0.008325     -0.002795
Pd      8.47525     13.21328     13.81954        -0.003785     -0.006653      0.005102
Pd     12.14825     14.12467      8.65408         0.000920      0.004382      0.019751
Pd     12.24965     12.75633     10.89687        -0.004309      0.016360     -0.016360
Pd     11.77405      7.08002     11.88247         0.004926     -0.006426     -0.007593
Pd     11.17802     15.31545     10.93421         0.001254     -0.007178      0.012585
Pd      9.61413     13.16757     11.40472        -0.008361     -0.012665      0.008259
Pd     14.02621     12.40139      7.96216        -0.003404     -0.012968      0.009424
Pd     11.57375     11.76990      6.74631         0.001238      0.022311     -0.000939
Pd      7.42356      8.52900      7.19009         0.000241      0.011494     -0.000972
Pd      8.61400     12.09855      6.91113        -0.025843      0.009533      0.010346
Pd      9.71002      9.90737      7.99702        -0.001876     -0.008529      0.000890
Pd      8.47697     14.74852      6.58098        -0.002944      0.002923     -0.000588
Pd     12.01742      9.06235      6.83615        -0.000147     -0.000747     -0.009335
Pd      9.90275     10.04929      5.40008         0.004274      0.009558      0.006503
Pd      6.90048      9.22389     12.16811        -0.000113     -0.008995      0.003584
Pd     12.39427      6.53247      7.66230         0.009023      0.008856      0.004963
Pd      5.56799     10.69339     10.10503         0.003367     -0.001969      0.008941
Pd      7.56174      6.66823     12.69783         0.013989      0.005283     -0.004880
Ir     11.28197      9.53683     12.83548         0.002917      0.020636      0.007809
Ir     13.07494      9.23461     11.07080        -0.013773      0.000381      0.020334
Ir      9.15211      8.42217     13.75446        -0.005681     -0.001011     -0.021143
Ir     10.27797     10.37236     15.06475        -0.003005     -0.005955     -0.008992
Ir      7.10571     11.91201     11.84278         0.010885     -0.001779      0.029239
Ir     14.40250     11.19807     10.31372         0.011634     -0.006328     -0.007834
Ir     12.27119     10.62723      9.04992         0.008271     -0.001983      0.001157
Ir      8.92820     10.79139     12.89040        -0.024736      0.007258     -0.009264
Ir     10.02006     10.29112     10.61121        -0.005498      0.006064      0.006247
Ir     13.30183     11.19589     12.60493        -0.007808     -0.024314      0.016446
Ir     11.09747     12.04161     13.32245        -0.002929     -0.015833      0.007285
Ir      7.95522     11.73576      9.51030        -0.016671      0.029688     -0.015112
Ir     11.26879      8.16242      9.43865        -0.019437     -0.017298     -0.011754
Ir      6.98176     13.60302      8.37958         0.008767     -0.009261      0.014655
Ir      9.04993      7.28952      8.79269         0.008038      0.007622      0.000231
Ir      7.73240      9.21882      9.70329        -0.004000     -0.021203      0.008642
Ir     10.35971     12.34239      8.97989        -0.002235      0.007229      0.003970
Ir      9.31667      7.90015     11.24711        -0.011434     -0.004568      0.025584
Ir     13.73429      8.47266      8.78391         0.018087      0.002927     -0.008545
