21
# total energy = -137.84347054 eVC      6.16444      9.36742      7.50000        -0.001377      0.016779     -0.000000
C     12.33161      1.31128      7.50000         0.001377     -0.016779     -0.000000
C      7.30140     11.33355      7.50000        -0.013842     -0.009582      0.000000
C     11.19465     -0.65485      7.50000         0.013842      0.009582     -0.000000
C      5.03021     11.33513      7.50000         0.015219     -0.007197      0.000000
C     13.46584     -0.65643      7.50000        -0.015219      0.007197     -0.000000
C     11.19465      0.65485      7.50000         0.013842     -0.009582     -0.000000
C      7.30140     10.02385      7.50000        -0.013842      0.009582      0.000000
C     13.46584      0.65643      7.50000        -0.015219     -0.007197     -0.000000
C      5.03021     10.02227      7.50000         0.015219      0.007197      0.000000
C     12.33161     -1.31128      7.50000         0.001377      0.016779     -0.000000
C      6.16444     11.98998      7.50000        -0.001377     -0.016779      0.000000
O      8.38987      6.82572      7.50000         0.007664     -0.013274      0.000000
O     10.10618      3.85298      7.50000        -0.007664      0.013274      0.000000
O      8.38987     14.53168      7.50000         0.007664      0.013274     -0.000000
O     10.10618     -3.85298      7.50000        -0.007664     -0.013274      0.000000
O      1.71631     10.67870      7.50000        -0.015328     -0.000000      0.000000
O     16.77974      0.00000      7.50000         0.015328     -0.000000     -0.000000
Ir      9.24803      5.33935      7.50000        -0.000000     -0.000000     -0.000000
Ir      9.24803     -5.33935      7.50000        -0.000000     -0.000000     -0.000000
Ir      0.00000     10.67870      7.50000        -0.000000     -0.000000     -0.000000
