152
# total energy = -1023.23967716 eVH     10.35389      5.87395      7.64558         0.488059      0.081851      0.710500
H     10.62451     15.10445      7.64558        -0.110106     -0.054849      0.808317
H     10.62451      5.87395     13.33282         0.145721      0.127633     -0.636807
H     10.35389     15.10445     13.33282        -0.174676     -0.120112     -0.544613
H      7.64558     10.35389      5.87395         0.311641     -0.022043      0.192368
H      7.64558     10.62451     15.10445         0.651045     -0.222126     -0.136258
H     13.33282     10.62451      5.87395        -0.766281     -0.148663      0.202966
H     13.33282     10.35389     15.10445        -0.437991     -0.105455     -0.061313
H      5.87395      7.64558     10.35389         0.209294      1.098410     -0.269283
H     15.10445      7.64558     10.62451        -0.175776      0.469593     -0.120907
H      5.87395     13.33282     10.62451         0.160596     -0.425482     -0.065395
H     15.10445     13.33282     10.35389        -0.130135     -0.911452      0.015373
H      5.87395     10.35389      7.64558         0.134751      0.095315      0.460453
H     15.10445     10.62451      7.64558         0.098465     -0.018707      1.074405
H      5.87395     10.62451     13.33282         0.194321     -0.033247     -0.389206
H     15.10445     10.35389     13.33282        -0.121226     -0.051741     -0.546239
H     10.35389      7.64558      5.87395         0.125904      0.885999      0.187589
H     10.62451      7.64558     15.10445        -0.008971      0.523275     -0.164294
H     10.62451     13.33282      5.87395        -0.020323     -0.591447      0.222993
H     10.35389     13.33282     15.10445        -0.298249     -0.891219     -0.125404
H      7.64558      5.87395     10.35389         0.441980      0.095898     -0.053075
H      7.64558     15.10445     10.62451         0.854103     -0.278992      0.035836
H     13.33282      5.87395     10.62451        -0.455429      0.185444     -0.066536
H     13.33282     15.10445     10.35389        -0.659906     -0.098854      0.162010
H     12.45634     12.45634     19.01126         0.252352      0.264004     -0.230570
H     19.01126     19.01126     19.01126        -0.251877     -0.231629     -0.262269
H     19.01126     12.45634     12.45634        -0.236395      0.272455      0.239138
H     12.45634     19.01126     12.45634         0.224417     -0.264521      0.249228
C     10.35284      5.61067      6.59456        -0.193851     -0.362823     -0.028700
C     10.62556     15.36773      6.59456         0.067157      0.376274     -1.214859
C     10.62556      5.61067     14.38384        -0.056527     -0.246013      0.802126
C     10.35284     15.36773     14.38384         0.046540      0.886140      0.410348
C      6.59456     10.35284      5.61067        -0.369811     -0.036474     -0.172616
C      6.59456     10.62556     15.36773        -0.839525      0.200737      0.367864
C     14.38384     10.62556      5.61067         0.454032      0.298250     -0.505062
C     14.38384     10.35284     15.36773         0.779226     -0.114904      0.443597
C      5.61067      6.59456     10.35284        -0.312115     -0.650389      0.426443
C     15.36773      6.59456     10.62556         0.170005     -0.517156      0.079182
C      5.61067     14.38384     10.62556        -0.144886      0.389673     -0.023805
C     15.36773     14.38384     10.35284         0.397472     -0.040823     -0.105201
C      5.61067     10.35284      6.59456        -0.257122     -0.019352     -0.782150
C     15.36773     10.62556      6.59456         0.605500     -0.271403     -1.345223
C      5.61067     10.62556     14.38384        -0.343371      0.000268      0.428912
C     15.36773     10.35284     14.38384         0.492983     -0.166143      1.130074
C     10.35284      6.59456      5.61067        -0.165761     -0.497816     -0.435389
C     10.62556      6.59456     15.36773         0.054966     -0.626818      0.267242
C     10.62556     14.38384      5.61067         0.105958      1.004696     -0.493234
C     10.35284     14.38384     15.36773         0.249319      0.595258      0.540794
C      6.59456      5.61067     10.35284        -0.100740     -0.812950      0.073952
C      6.59456     15.36773     10.62556        -1.524809      0.409964      0.106458
C     14.38384      5.61067     10.62556         0.646874     -0.274357     -0.016961
C     14.38384     15.36773     10.35284        -0.431024      0.680805     -0.312941
C     10.40319      3.19606      7.29314         0.007251      0.838825     -0.296169
C     10.35913      4.25547      6.23373        -0.054503     -0.464191      0.508786
C      0.08601      7.29314      7.29314        -0.007263     -0.261898     -0.507728
C      0.13007      6.23373      6.23373         0.030272      0.142279      0.207763
C      0.08601      3.19606      3.19606        -0.011811      0.650190      0.196200
C      0.13007      4.25547      4.25547        -0.093068     -0.182083     -0.200714
C     10.40319      7.29314      3.19606        -0.007755     -0.651920      0.561040
C     10.35913      6.23373      4.25547        -0.043564      0.274593     -0.613031
C      7.29314     10.40319      3.19606        -0.328129      0.026763      0.935254
C      6.23373     10.35913      4.25547         0.173509      0.030234     -0.125985
C      7.29314      0.08601      7.29314        -0.308202     -0.038482     -0.300445
C      6.23373      0.13007      6.23373         0.332068     -0.051730      0.325330
C      3.19606      0.08601      3.19606         0.530854     -0.034315      0.707891
C      4.25547      0.13007      4.25547        -0.091395     -0.032812     -0.376316
C      3.19606     10.40319      7.29314         0.726098      0.000987     -0.405927
C      4.25547     10.35913      6.23373        -0.157612      0.030453      0.084912
C      3.19606      7.29314     10.40319         0.671736     -1.284059     -0.010850
C      4.25547      6.23373     10.35913        -0.651065      0.916252      0.083399
C      7.29314      7.29314      0.08601        -0.677250     -0.182659     -0.019916
C      6.23373      6.23373      0.13007         0.214263      0.204657      0.015289
C      3.19606      3.19606      0.08601         0.267264      0.291962     -0.021974
C      4.25547      4.25547      0.13007        -0.072858     -0.038688     -0.002778
C      7.29314      3.19606     10.40319        -0.362960      1.006119      0.015425
C      6.23373      4.25547     10.35913         1.062720     -0.028821      0.013359
O     10.43466      3.58206      8.50569        -0.043791      0.047208      0.384848
O     10.54374     17.39634      8.50569        -0.039678     -0.169818      0.583095
O     10.54374      3.58206     12.47271         0.050318      0.060148     -0.311573
O     10.43466     17.39634     12.47271        -0.009979     -0.138981     -0.631157
O      8.50569     10.43466      3.58206         0.353925     -0.028056     -0.029638
O      8.50569     10.54374     17.39634         0.471551      0.044901     -0.146835
O     12.47271     10.54374      3.58206        -0.484008      0.012770      0.081034
O     12.47271     10.43466     17.39634        -0.812631      0.002692     -0.197550
O      3.58206      8.50569     10.43466         0.112052      1.044339      0.015797
O     17.39634      8.50569     10.54374        -0.033095      0.312832      0.073520
O      3.58206     12.47271     10.54374         0.072633     -0.461179      0.050259
O     17.39634     12.47271     10.43466        -0.176114     -0.896507      0.055437
O      3.58206     10.43466      8.50569        -0.065388     -0.069631      0.320903
O     17.39634     10.54374      8.50569        -0.131103      0.041836      0.461567
O      3.58206     10.54374     12.47271         0.089269     -0.024664     -0.641419
O     17.39634     10.43466     12.47271        -0.182946      0.054191     -0.783311
O     10.43466      8.50569      3.58206         0.027833      0.648658      0.154636
O     10.54374      8.50569     17.39634         0.061742      0.446561     -0.085397
O     10.54374     12.47271      3.58206        -0.012951     -0.737439      0.230814
O     10.43466     12.47271     17.39634         0.034173     -0.850630     -0.241748
O      8.50569      3.58206     10.43466         0.442595      0.021725     -0.040408
O      8.50569     17.39634     10.54374         0.687956     -0.263771     -0.062565
O     12.47271      3.58206     10.54374        -0.462650      0.152680      0.041745
O     12.47271     17.39634     10.43466        -0.552503     -0.021563     -0.007780
O     11.90042     11.90042     19.56718        -0.294280     -0.313970      0.255127
O     19.56718     19.56718     19.56718         0.282996      0.263815      0.310560
O     19.56718     11.90042     11.90042         0.260734     -0.322012     -0.243534
O     11.90042     19.56718     11.90042        -0.271923      0.278413     -0.266540
O      9.45224      1.03696      9.45224        -0.083013      0.041772     -0.070209
O      1.03696      9.45224      9.45224         0.014610     -0.169192     -0.098405
O      1.03696      1.03696      1.03696         0.001765      0.069764      0.179990
O      9.45224      9.45224      1.03696        -0.062848     -0.099662      0.107248
Zr     10.48920      2.52580     10.48920         0.000932     -0.095500     -0.054740
Zr     10.48920     18.45260     10.48920         0.128831      0.351454     -0.004462
Zr     10.48920     10.48920      2.52580         0.013423     -0.037672     -0.394621
Zr     10.48920     10.48920     18.45260        -0.158700     -0.059817      0.373738
Zr      2.52580     10.48920     10.48920        -0.331161      0.243010     -0.129137
Zr     18.45260     10.48920     10.48920         0.277791     -0.015114     -0.284145
Pd      8.99367     10.13291     13.31261        -0.044722     -0.024293      0.006930
Pd     10.69329      9.70760     10.85444        -0.023646     -0.025715     -0.054227
Pd     13.73231      8.40469     12.57569        -0.014382      0.010460     -0.003836
Pd     11.01075     10.91582     14.96890        -0.021208     -0.019996      0.001021
Pd     12.90634     11.02850     12.96187         0.016273      0.007471      0.029351
Pd     15.09919     11.10009     11.31399         0.000079     -0.020457      0.002715
Pd      6.60379      7.70547     12.31813        -0.008346      0.023779      0.011594
Pd      9.31729      7.29993      9.86895        -0.003573     -0.015633     -0.017069
Pd      9.23134      7.47844     12.63041        -0.004174     -0.012130     -0.009199
Pd     11.64050      7.16487     11.41816        -0.006589     -0.006366     -0.006879
Pd     11.69709      8.00206      8.90229         0.005638     -0.037057     -0.015571
Pd      7.37604     11.78106     11.78264        -0.006047     -0.011099     -0.017627
Pd      9.19383     14.75343      9.43906         0.007796     -0.006348      0.004249
Pd      8.40271     12.55644     14.25880        -0.007097     -0.008881     -0.011611
Pd     14.09293     14.25462      8.31285         0.001010     -0.008278      0.002147
Pd     11.49901     13.64912      8.72642         0.012139     -0.005250      0.009688
Pd     14.16308     11.69519      8.88809        -0.003425      0.001032     -0.003065
Pd      8.71976     14.03795     12.07090         0.006036     -0.010140     -0.002304
Pd     12.27357     13.50719     14.14377        -0.005820      0.005391     -0.013612
Pd     11.34366     14.42717     11.44043         0.005555     -0.017061      0.001118
Pd     14.07767     13.60233     12.26917         0.002832     -0.013745     -0.004706
Pd     12.42540     12.16631     10.72287        -0.010661     -0.027123      0.029921
Pd     12.75288     12.52831      6.67636        -0.003994     -0.002148      0.005461
Pd     13.93195      9.00327      7.99131         0.010385     -0.007478     -0.016758
Pd      6.94130      8.50114      8.76374        -0.003379     -0.012245     -0.014256
Pd      5.62514     10.10469     10.72051         0.005574     -0.001377     -0.042481
Pd      9.39690      9.47320      8.11436        -0.002488     -0.024108     -0.042139
Pd      8.57231      7.03702      7.23825        -0.017386     -0.031411     -0.008483
Pd      9.76299     12.13128     10.36082        -0.007093     -0.017386      0.016272
Pd     11.63782     10.81940      8.48704        -0.016087     -0.007377     -0.022963
Pd     11.58290      9.09620      6.46664         0.010248     -0.002063     -0.007753
Pd     10.08996     11.34546      6.30283         0.000414     -0.004201     -0.012536
Ir     11.29742      9.00544     13.22122        -0.020828      0.030898     -0.041396
Ir     13.22112      9.62061     10.38013         0.001803     -0.032384      0.004918
Ir     10.55369     12.23057     12.74004        -0.004215     -0.010767     -0.000834
Ir      7.59884     11.00815      9.25652         0.024608     -0.006753     -0.012009
Ir      8.86613     12.59888      8.07385         0.033475     -0.011625      0.004885
Ir      8.19703      9.31247     11.00746        -0.009471      0.002634     -0.006771
