152
# total energy = -1061.42178782 eVH     10.35389      5.87395      7.64558        -0.131349      0.121403      0.977932
H     10.62451     15.10445      7.64558         0.302341     -0.086962      0.811896
H     10.62451      5.87395     13.33282        -0.130003      0.083854     -0.494444
H     10.35389     15.10445     13.33282         0.083246     -0.198344     -0.399997
H      7.64558     10.35389      5.87395         0.899824      0.129884      0.212006
H      7.64558     10.62451     15.10445         0.202317     -0.015857     -0.063966
H     13.33282     10.62451      5.87395        -0.645582     -0.007786      0.167154
H     13.33282     10.35389     15.10445        -0.321544     -0.070923     -0.060027
H      5.87395      7.64558     10.35389         0.140094      0.355704     -0.054575
H     15.10445      7.64558     10.62451        -0.135481      0.541677      0.226857
H      5.87395     13.33282     10.62451         0.126164     -0.578892      0.058900
H     15.10445     13.33282     10.35389        -0.238066     -0.425873      0.087378
H      5.87395     10.35389      7.64558         0.179081      0.212192      0.364865
H     15.10445     10.62451      7.64558        -0.157178     -0.285889      0.637657
H      5.87395     10.62451     13.33282         0.034054      0.121080     -0.711736
H     15.10445     10.35389     13.33282         0.083884     -0.264799     -0.712581
H     10.35389      7.64558      5.87395        -0.101862      0.433851      0.242370
H     10.62451      7.64558     15.10445         0.415449      0.665815     -0.103347
H     10.62451     13.33282      5.87395         0.189208     -0.584324      0.110923
H     10.35389     13.33282     15.10445         0.197453     -0.735288     -0.072778
H      7.64558      5.87395     10.35389         0.457954      0.155536     -0.106952
H      7.64558     15.10445     10.62451         0.434287     -0.164733      0.377566
H     13.33282      5.87395     10.62451        -0.374570      0.157317     -0.065780
H     13.33282     15.10445     10.35389        -0.555744     -0.264648      0.125309
H     12.45634     12.45634     19.01126         0.235830      0.264525     -0.244252
H     19.01126     19.01126     19.01126        -0.260104     -0.263023     -0.226515
H     19.01126     12.45634     12.45634        -0.232516      0.270800      0.241427
H     12.45634     19.01126     12.45634         0.281151     -0.210675      0.252235
C     10.35284      5.61067      6.59456         0.290518     -0.288669     -0.851586
C     10.62556     15.36773      6.59456        -0.220650      0.639770     -0.302775
C     10.62556      5.61067     14.38384         0.271295     -0.322950      0.515851
C     10.35284     15.36773     14.38384        -0.121115      0.266866      0.277217
C      6.59456     10.35284      5.61067        -0.857586     -0.129494     -0.214217
C      6.59456     10.62556     15.36773        -0.548628      0.051640      0.348471
C     14.38384     10.62556      5.61067         0.888731     -0.038525     -0.600540
C     14.38384     10.35284     15.36773         0.270997     -0.088602      0.370137
C      5.61067      6.59456     10.35284        -0.382839     -0.397956      0.054218
C     15.36773      6.59456     10.62556         0.282992     -0.630825     -0.118460
C      5.61067     14.38384     10.62556        -0.161652      0.539737     -0.311881
C     15.36773     14.38384     10.35284         0.398390      0.805898     -0.105343
C      5.61067     10.35284      6.59456        -0.275022     -0.134581     -0.140431
C     15.36773     10.62556      6.59456         0.224274      0.247224     -0.513015
C      5.61067     10.62556     14.38384        -0.348606     -0.023340      1.214800
C     15.36773     10.35284     14.38384         0.300425     -0.057217      0.984048
C     10.35284      6.59456      5.61067         0.066829     -0.297008     -0.456204
C     10.62556      6.59456     15.36773        -0.016566     -0.862363      0.228158
C     10.62556     14.38384      5.61067        -0.404476      0.042549     -0.823479
C     10.35284     14.38384     15.36773        -0.241283      0.912899      0.235578
C      6.59456      5.61067     10.35284        -0.375453     -0.276272      0.215572
C      6.59456     15.36773     10.62556        -0.467213      0.564560      0.006957
C     14.38384      5.61067     10.62556         0.434590     -0.330914      0.064670
C     14.38384     15.36773     10.35284         0.888266      0.269559     -0.059834
C     10.40319      3.19606      7.29314         0.003262      0.567497     -0.312216
C     10.35913      4.25547      6.23373        -0.001209     -0.494245      0.434315
C      0.08601      7.29314      7.29314        -0.014941     -0.907288     -0.510506
C      0.13007      6.23373      6.23373        -0.159687      0.866659      0.153565
C      0.08601      3.19606      3.19606        -0.013981      0.367254      0.379458
C      0.13007      4.25547      4.25547         0.057168     -0.181429     -0.625518
C     10.40319      7.29314      3.19606        -0.048895     -1.105535      0.798636
C     10.35913      6.23373      4.25547         0.011375      0.336450     -0.192583
C      7.29314     10.40319      3.19606        -1.165087     -0.077789      0.348426
C      6.23373     10.35913      4.25547         0.271248      0.027966     -0.642198
C      7.29314      0.08601      7.29314        -0.906789     -0.003888     -0.413621
C      6.23373      0.13007      6.23373         0.275145      0.042830      0.128126
C      3.19606      0.08601      3.19606         0.324590     -0.002416      0.411006
C      4.25547      0.13007      4.25547        -0.283639     -0.042832     -0.170613
C      3.19606     10.40319      7.29314         0.499589     -0.046027     -1.021915
C      4.25547     10.35913      6.23373        -0.292722     -0.059072      0.109427
C      3.19606      7.29314     10.40319         0.989680     -0.495372      0.005746
C      4.25547      6.23373     10.35913        -0.155946      0.165067      0.000813
C      7.29314      7.29314      0.08601        -0.436956     -0.279993     -0.006138
C      6.23373      6.23373      0.13007         0.229063      0.087448     -0.138484
C      3.19606      3.19606      0.08601         0.342094      0.762515     -0.009669
C      4.25547      4.25547      0.13007        -0.443888     -0.201043      0.049283
C      7.29314      3.19606     10.40319        -0.204485      0.543199      0.021434
C      6.23373      4.25547     10.35913         0.019199     -0.306337      0.029884
O     10.43466      3.58206      8.50569        -0.022449      0.132334      0.368638
O     10.54374     17.39634      8.50569         0.052699      0.065243      0.308925
O     10.54374      3.58206     12.47271         0.042317      0.202622     -0.570398
O     10.43466     17.39634     12.47271         0.028364     -0.001593     -0.436460
O      8.50569     10.43466      3.58206         0.748178     -0.070945      0.043371
O      8.50569     10.54374     17.39634         0.890854      0.023037     -0.159874
O     12.47271     10.54374      3.58206        -0.343745      0.041463      0.069900
O     12.47271     10.43466     17.39634        -0.373427     -0.033403      0.049415
O      3.58206      8.50569     10.43466        -0.070346      0.335303     -0.078805
O     17.39634      8.50569     10.54374        -0.112670      0.440692      0.037337
O      3.58206     12.47271     10.54374         0.135877     -0.759214     -0.011301
O     17.39634     12.47271     10.43466        -0.249091     -0.658206     -0.014041
O      3.58206     10.43466      8.50569         0.127786     -0.040487      0.801163
O     17.39634     10.54374      8.50569         0.027456      0.043696      0.303365
O      3.58206     10.54374     12.47271         0.071268      0.017330     -0.461634
O     17.39634     10.43466     12.47271         0.013561      0.018363     -0.287696
O     10.43466      8.50569      3.58206        -0.065385      0.592609     -0.073860
O     10.54374      8.50569     17.39634         0.020883      0.910329     -0.214036
O     10.54374     12.47271      3.58206         0.062567     -0.362153      0.087671
O     10.43466     12.47271     17.39634        -0.058737     -0.641963     -0.196310
O      8.50569      3.58206     10.43466         0.336797      0.069498     -0.051506
O      8.50569     17.39634     10.54374         0.517631     -0.139912      0.004610
O     12.47271      3.58206     10.54374        -0.386536      0.074507      0.032366
O     12.47271     17.39634     10.43466        -0.768435     -0.112377      0.059969
O     11.90042     11.90042     19.56718        -0.249346     -0.281758      0.234768
O     19.56718     19.56718     19.56718         0.292929      0.298908      0.244459
O     19.56718     11.90042     11.90042         0.231041     -0.299717     -0.283424
O     11.90042     19.56718     11.90042        -0.277080      0.179296     -0.263513
O      9.45224      1.03696      9.45224        -0.119467      0.106267     -0.082276
O      1.03696      9.45224      9.45224         0.146900     -0.136573     -0.168854
O      1.03696      1.03696      1.03696         0.136135      0.200351     -0.003838
O      9.45224      9.45224      1.03696        -0.213548     -0.159865      0.049115
Zr     10.48920      2.52580     10.48920         0.014522     -0.241111      0.161193
Zr     10.48920     18.45260     10.48920        -0.289266      0.269906     -0.199000
Zr     10.48920     10.48920      2.52580         0.305909      0.435170     -0.222760
Zr     10.48920     10.48920     18.45260         0.033096      0.005765      0.497970
Zr      2.52580     10.48920     10.48920        -0.557478      0.059655      0.331481
Zr     18.45260     10.48920     10.48920         0.274227     -0.166112      0.022240
Pd      9.10287     14.53413      9.20537         0.076534      0.001740      0.014848
Pd      8.40217     13.24629     13.78885         0.026128     -0.043323     -0.004017
Pd     12.06404     14.15503      8.69579         0.088933      0.047099     -0.052107
Pd     12.29444     12.76537     10.89514        -0.045786     -0.052149      0.058553
Pd     11.83496      7.08466     12.01812        -0.011042      0.065307     -0.067032
Pd     11.07034     15.32482     10.91647         0.008812     -0.050214     -0.004495
Pd      9.64091     13.11343     11.43058        -0.014342      0.010919      0.021444
Pd     14.00596     12.43522      8.08622         0.012648      0.016441      0.047085
Pd     11.62920     11.74137      6.79744        -0.028523      0.026193     -0.049442
Pd      7.54659      8.51899      7.22246        -0.011018      0.007168      0.008689
Pd      8.68296     11.98491      6.91187         0.033875     -0.018705      0.029309
Pd      9.82518      9.84379      8.04012        -0.024484      0.022232      0.004796
Pd      8.48392     14.62440      6.54659         0.009207      0.023418      0.047997
Pd     12.14507      9.05360      6.89399        -0.026745      0.012730      0.021525
Pd      9.99460      9.97476      5.42294        -0.005555      0.012827      0.032153
Pd      6.93960      9.18168     12.20233        -0.010176      0.001600     -0.001596
Pd     12.45062      6.54043      7.74030        -0.038648     -0.041865      0.009811
Pd      5.60635     10.60924     10.09821        -0.064877     -0.007312     -0.017087
Pd      7.64436      6.64140     12.79754        -0.047503     -0.006383     -0.041084
Ir     11.30198      9.56685     12.91300        -0.032980      0.003082      0.003434
Ir     13.11180      9.23462     11.18251        -0.092150     -0.133641     -0.112885
Ir      9.17123      8.43641     13.82316        -0.005431      0.048264     -0.014738
Ir     10.25959     10.38217     15.13996         0.074378      0.052921     -0.045562
Ir      7.10138     11.86205     11.84072         0.042834      0.038737      0.082104
Ir     14.48746     11.13418     10.40153        -0.005820      0.101883     -0.086782
Ir     12.33632     10.60759      9.13731        -0.035711     -0.063635     -0.004845
Ir      8.93124     10.80215     12.94784        -0.034546      0.071711     -0.112172
Ir     10.05020     10.28278     10.67622         0.005532     -0.000383      0.023194
Ir     13.29960     11.24348     12.65504         0.008306      0.078630      0.067886
Ir     11.09941     12.05470     13.41358         0.038404     -0.049458     -0.061461
Ir      7.97044     11.69646      9.52823         0.117452      0.074042     -0.050090
Ir     11.34730      8.13860      9.54081         0.135291      0.017663      0.016755
Ir      6.92224     13.43337      8.26112         0.075966      0.001368     -0.006783
Ir      9.14775      7.26286      8.86785        -0.115438      0.008560     -0.069736
Ir      7.80393      9.18660      9.74315         0.031825     -0.079852     -0.015044
Ir     10.39059     12.29071      9.00771        -0.119080     -0.039324     -0.033816
Ir      9.37442      7.88705     11.32345        -0.014093      0.009052     -0.036972
Ir     13.81377      8.47054      8.87916        -0.124914      0.034472      0.047692
