26
# total energy = -182.09284907 eVH      3.19976      7.07467      0.00000        -0.004079     -0.009973      0.000000
H      6.04258      2.16767      0.00000         0.004079      0.009973      0.000000
H      2.16767      3.19976      0.00000         0.009973     -0.004079     -0.000000
H      7.07467      6.04258     -0.00000        -0.009973      0.004079      0.000000
H      6.04258      7.07467     -0.00000         0.004079     -0.009973      0.000000
H      3.19976      2.16767     -0.00000        -0.004079      0.009973      0.000000
H      7.07467      3.19976     -0.00000        -0.009973     -0.004079      0.000000
H      2.16767      6.04258      0.00000         0.009973      0.004079     -0.000000
C      8.51139      1.75934     -0.00000         0.016249      0.009562      0.000000
C      0.73095      7.48300     -0.00000        -0.016249     -0.009562     -0.000000
C      7.48300      8.51139     -0.00000        -0.009562      0.016249     -0.000000
C      1.75934      0.73095     -0.00000         0.009562     -0.016249      0.000000
C      0.73095      1.75934      0.00000        -0.016249      0.009562     -0.000000
C      8.51139      7.48300     -0.00000         0.016249     -0.009562      0.000000
C      1.75934      8.51139     -0.00000         0.009562      0.016249      0.000000
C      7.48300      0.73095      0.00000        -0.009562     -0.016249     -0.000000
N      8.07657      3.05770     -0.00000         0.035172      0.020262      0.000000
N      1.16577      6.18464      0.00000        -0.035172     -0.020262     -0.000000
N      6.18464      8.07657      0.00000        -0.020262      0.035172     -0.000000
N      3.05770      1.16577     -0.00000         0.020262     -0.035172      0.000000
N      1.16577      3.05770      0.00000        -0.035172      0.020262     -0.000000
N      8.07657      6.18464     -0.00000         0.035172     -0.020262      0.000000
N      3.05770      8.07657     -0.00000         0.020262      0.035172     -0.000000
N      6.18464      1.16577      0.00000        -0.020262     -0.035172     -0.000000
Ir      0.00000      4.62117      0.00000        -0.000000     -0.000000      0.000000
Ir      4.62117      0.00000      0.00000         0.000000     -0.000000      0.000000
