152
# total energy = -1023.27212343 eVH     10.35389      5.87395      7.64558         0.495005      0.085141      0.719241
H     10.62451     15.10445      7.64558        -0.080794     -0.077267      0.786735
H     10.62451      5.87395     13.33282         0.145855      0.132784     -0.631654
H     10.35389     15.10445     13.33282        -0.186826     -0.119768     -0.551388
H      7.64558     10.35389      5.87395         0.308174     -0.021144      0.188252
H      7.64558     10.62451     15.10445         0.679834     -0.229557     -0.122086
H     13.33282     10.62451      5.87395        -0.769674     -0.142781      0.202447
H     13.33282     10.35389     15.10445        -0.454014     -0.107066     -0.051018
H      5.87395      7.64558     10.35389         0.206442      1.049924     -0.243659
H     15.10445      7.64558     10.62451        -0.174696      0.460955     -0.113186
H      5.87395     13.33282     10.62451         0.163415     -0.422423     -0.060686
H     15.10445     13.33282     10.35389        -0.127079     -0.919893      0.023043
H      5.87395     10.35389      7.64558         0.131948      0.098697      0.455042
H     15.10445     10.62451      7.64558         0.097678     -0.017187      1.077812
H      5.87395     10.62451     13.33282         0.182272     -0.028324     -0.378960
H     15.10445     10.35389     13.33282        -0.128873     -0.062876     -0.554095
H     10.35389      7.64558      5.87395         0.106437      0.862356      0.190300
H     10.62451      7.64558     15.10445        -0.005071      0.485557     -0.166096
H     10.62451     13.33282      5.87395        -0.013424     -0.570921      0.215693
H     10.35389     13.33282     15.10445        -0.335004     -0.885329     -0.128559
H      7.64558      5.87395     10.35389         0.449282      0.097126     -0.031786
H      7.64558     15.10445     10.62451         0.822632     -0.277767      0.030418
H     13.33282      5.87395     10.62451        -0.448389      0.185986     -0.064795
H     13.33282     15.10445     10.35389        -0.653086     -0.096473      0.169761
H     12.45634     12.45634     19.01126         0.251923      0.265692     -0.229430
H     19.01126     19.01126     19.01126        -0.252420     -0.231746     -0.260638
H     19.01126     12.45634     12.45634        -0.234949      0.272824      0.239767
H     12.45634     19.01126     12.45634         0.225196     -0.262881      0.249437
C     10.35284      5.61067      6.59456        -0.203075     -0.365240     -0.024977
C     10.62556     15.36773      6.59456         0.062848      0.370470     -1.174159
C     10.62556      5.61067     14.38384        -0.058889     -0.241542      0.803147
C     10.35284     15.36773     14.38384         0.043245      0.858164      0.394966
C      6.59456     10.35284      5.61067        -0.365767     -0.037573     -0.180959
C      6.59456     10.62556     15.36773        -0.875044      0.224650      0.379272
C     14.38384     10.62556      5.61067         0.469375      0.298052     -0.514932
C     14.38384     10.35284     15.36773         0.778664     -0.112528      0.435568
C      5.61067      6.59456     10.35284        -0.318868     -0.629150      0.436760
C     15.36773      6.59456     10.62556         0.161501     -0.506449      0.077123
C      5.61067     14.38384     10.62556        -0.145451      0.392654     -0.022950
C     15.36773     14.38384     10.35284         0.374035     -0.054200     -0.100517
C      5.61067     10.35284      6.59456        -0.260211     -0.021816     -0.781139
C     15.36773     10.62556      6.59456         0.611499     -0.293047     -1.348216
C      5.61067     10.62556     14.38384        -0.349876     -0.004817      0.388583
C     15.36773     10.35284     14.38384         0.495670     -0.161928      1.150783
C     10.35284      6.59456      5.61067        -0.175738     -0.482041     -0.466625
C     10.62556      6.59456     15.36773         0.050600     -0.582975      0.267345
C     10.62556     14.38384      5.61067         0.096121      0.988856     -0.487399
C     10.35284     14.38384     15.36773         0.258599      0.563709      0.536680
C      6.59456      5.61067     10.35284        -0.152634     -0.825139      0.077077
C      6.59456     15.36773     10.62556        -1.486633      0.407828      0.116360
C     14.38384      5.61067     10.62556         0.643969     -0.268693     -0.014005
C     14.38384     15.36773     10.35284        -0.428110      0.682418     -0.325185
C     10.40319      3.19606      7.29314         0.009436      0.839080     -0.299721
C     10.35913      4.25547      6.23373        -0.040009     -0.473457      0.503645
C      0.08601      7.29314      7.29314        -0.007736     -0.271015     -0.509212
C      0.13007      6.23373      6.23373         0.023220      0.131572      0.192223
C      0.08601      3.19606      3.19606        -0.012457      0.604767      0.194523
C      0.13007      4.25547      4.25547        -0.090373     -0.172480     -0.193165
C     10.40319      7.29314      3.19606        -0.006574     -0.657987      0.550210
C     10.35913      6.23373      4.25547        -0.035157      0.283054     -0.604259
C      7.29314     10.40319      3.19606        -0.299296      0.029085      0.942636
C      6.23373     10.35913      4.25547         0.168678      0.034546     -0.126519
C      7.29314      0.08601      7.29314        -0.327678     -0.036043     -0.299858
C      6.23373      0.13007      6.23373         0.343071     -0.052760      0.339154
C      3.19606      0.08601      3.19606         0.532992     -0.030487      0.662601
C      4.25547      0.13007      4.25547        -0.094641     -0.032345     -0.367642
C      3.19606     10.40319      7.29314         0.713629      0.001256     -0.430877
C      4.25547     10.35913      6.23373        -0.159160      0.031850      0.088451
C      3.19606      7.29314     10.40319         0.662071     -1.300287     -0.014718
C      4.25547      6.23373     10.35913        -0.646147      0.896144      0.073119
C      7.29314      7.29314      0.08601        -0.675568     -0.190285     -0.015250
C      6.23373      6.23373      0.13007         0.209760      0.187653      0.017765
C      3.19606      3.19606      0.08601         0.268892      0.305122     -0.020159
C      4.25547      4.25547      0.13007        -0.066731     -0.042807     -0.003020
C      7.29314      3.19606     10.40319        -0.367352      0.974075      0.014910
C      6.23373      4.25547     10.35913         1.073041     -0.014086      0.008347
O     10.43466      3.58206      8.50569        -0.043965      0.047053      0.380803
O     10.54374     17.39634      8.50569        -0.040469     -0.169295      0.583237
O     10.54374      3.58206     12.47271         0.049220      0.071928     -0.323077
O     10.43466     17.39634     12.47271        -0.013199     -0.133720     -0.619360
O      8.50569     10.43466      3.58206         0.324972     -0.033327     -0.033929
O      8.50569     10.54374     17.39634         0.483026      0.044030     -0.147364
O     12.47271     10.54374      3.58206        -0.491760      0.005373      0.097080
O     12.47271     10.43466     17.39634        -0.786811     -0.000677     -0.182757
O      3.58206      8.50569     10.43466         0.117261      1.059851      0.014114
O     17.39634      8.50569     10.54374        -0.028970      0.316095      0.072035
O      3.58206     12.47271     10.54374         0.075126     -0.478244      0.047846
O     17.39634     12.47271     10.43466        -0.172159     -0.873944      0.052473
O      3.58206     10.43466      8.50569        -0.061202     -0.067804      0.344716
O     17.39634     10.54374      8.50569        -0.126876      0.041446      0.456468
O      3.58206     10.54374     12.47271         0.089280     -0.017541     -0.622795
O     17.39634     10.43466     12.47271        -0.191769      0.057583     -0.789882
O     10.43466      8.50569      3.58206         0.032463      0.653449      0.165003
O     10.54374      8.50569     17.39634         0.063865      0.449194     -0.081384
O     10.54374     12.47271      3.58206        -0.007828     -0.702433      0.222141
O     10.43466     12.47271     17.39634         0.032461     -0.860695     -0.241181
O      8.50569      3.58206     10.43466         0.454620      0.030695     -0.038921
O      8.50569     17.39634     10.54374         0.692887     -0.259677     -0.060082
O     12.47271      3.58206     10.54374        -0.458987      0.147659      0.041473
O     12.47271     17.39634     10.43466        -0.544007     -0.014050     -0.006384
O     11.90042     11.90042     19.56718        -0.291094     -0.315322      0.253328
O     19.56718     19.56718     19.56718         0.284922      0.263240      0.308794
O     19.56718     11.90042     11.90042         0.260222     -0.324019     -0.244263
O     11.90042     19.56718     11.90042        -0.272205      0.277510     -0.268380
O      9.45224      1.03696      9.45224        -0.080171      0.042219     -0.072919
O      1.03696      9.45224      9.45224         0.019514     -0.167685     -0.098096
O      1.03696      1.03696      1.03696         0.006428      0.066770      0.173783
O      9.45224      9.45224      1.03696        -0.060935     -0.102526      0.107230
Zr     10.48920      2.52580     10.48920        -0.003112     -0.094819     -0.042790
Zr     10.48920     18.45260     10.48920         0.128296      0.356111      0.009173
Zr     10.48920     10.48920      2.52580         0.014364     -0.016873     -0.371388
Zr     10.48920     10.48920     18.45260        -0.165663     -0.051868      0.384757
Zr      2.52580     10.48920     10.48920        -0.355828      0.246785     -0.088178
Zr     18.45260     10.48920     10.48920         0.271255     -0.003415     -0.285923
Pd      8.94341     10.09879     13.32134        -0.033323     -0.021816      0.016574
Pd     10.65942      9.67824     10.80215         0.015978     -0.000588     -0.062726
Pd     13.70016      8.39770     12.58618         0.003159      0.098099     -0.037769
Pd     10.97893     10.88398     14.98034        -0.029017     -0.012933      0.018423
Pd     12.90632     11.04118     12.98541         0.091331     -0.039460      0.044672
Pd     15.09927     11.05491     11.31734        -0.016450     -0.026827      0.016310
Pd      6.58377      7.74033     12.33943         0.001849      0.011587      0.026057
Pd      9.30493      7.26944      9.84925         0.037180      0.046880     -0.027986
Pd      9.21946      7.46561     12.60993         0.019720     -0.038801     -0.000036
Pd     11.62601      7.16584     11.40392        -0.001403      0.012929     -0.007964
Pd     11.71356      7.96626      8.88060        -0.035323     -0.002501     -0.048991
Pd      7.38519     11.76825     11.75793        -0.050242     -0.005075     -0.006627
Pd      9.22501     14.75185      9.45196         0.015891      0.100845      0.064503
Pd      8.37545     12.53558     14.24815         0.003098     -0.015062     -0.028354
Pd     14.09780     14.24473      8.31324         0.036424     -0.002643      0.011653
Pd     11.52379     13.62866      8.73783        -0.075878      0.053117      0.027402
Pd     14.16807     11.68026      8.89744        -0.012509      0.004451      0.004867
Pd      8.73698     14.02221     12.07047        -0.002349     -0.027801      0.038746
Pd     12.25287     13.50631     14.14068         0.014542      0.028569     -0.038205
Pd     11.35482     14.40263     11.44865         0.007054     -0.035426      0.019010
Pd     14.07411     13.57678     12.26127        -0.017273     -0.000938      0.040114
Pd     12.42120     12.14164     10.72643        -0.031040     -0.101231      0.046768
Pd     12.74895     12.51761      6.69611         0.026864     -0.024933     -0.068988
Pd     13.94549      8.98930      7.97382        -0.023069      0.020664      0.025907
Pd      6.94256      8.49028      8.75004         0.000010     -0.014723     -0.044678
Pd      5.63091     10.10155     10.65827        -0.002861      0.021758     -0.039019
Pd      9.39623      9.43988      8.07711         0.029594     -0.069274     -0.009314
Pd      8.55227      7.00423      7.23197        -0.004927     -0.035081     -0.045307
Pd      9.75743     12.12296     10.35149         0.108161     -0.010704      0.070906
Pd     11.64418     10.79041      8.48914         0.004157     -0.024519     -0.069044
Pd     11.59890      9.08434      6.44324         0.011677      0.012822      0.002329
Pd     10.09433     11.34565      6.34897        -0.019801      0.054635     -0.008747
Ir     11.26679      9.02952     13.18227        -0.017258      0.056784     -0.054228
Ir     13.20484      9.60632     10.37191         0.023072     -0.133828     -0.059236
Ir     10.55280     12.18368     12.73838        -0.138486      0.042690     -0.059142
Ir      7.63558     10.99768      9.22540        -0.096811     -0.132293      0.039511
Ir      8.83120     12.64731      8.07874         0.150723     -0.067019     -0.163975
Ir      8.17705      9.29389     10.99736         0.000829      0.021120     -0.014511
