152
# total energy = -1060.01240274 eVH     10.35389      5.87395      7.64558        -0.260046      0.003751      1.142421
H     10.62451     15.10445      7.64558         0.043062     -0.091289      0.924280
H     10.62451      5.87395     13.33282        -0.237267      0.088565     -0.789171
H     10.35389     15.10445     13.33282         0.096581     -0.296447     -0.896684
H      7.64558     10.35389      5.87395         0.930821     -0.112739      0.183708
H      7.64558     10.62451     15.10445         0.337098     -0.044056     -0.077705
H     13.33282     10.62451      5.87395        -0.869039      0.208207      0.203115
H     13.33282     10.35389     15.10445        -0.277673     -0.011450     -0.068493
H      5.87395      7.64558     10.35389         0.088226      0.414494     -0.016801
H     15.10445      7.64558     10.62451         0.013712      0.512179     -0.035266
H      5.87395     13.33282     10.62451        -0.017398     -0.963278      0.078278
H     15.10445     13.33282     10.35389        -0.078256     -0.320718      0.003735
H      5.87395     10.35389      7.64558         0.271505      0.118007      0.417079
H     15.10445     10.62451      7.64558        -0.126190     -0.174156      0.651418
H      5.87395     10.62451     13.33282        -0.094329      0.463352     -0.614633
H     15.10445     10.35389     13.33282         0.264747     -0.649737     -0.812550
H     10.35389      7.64558      5.87395        -0.045325      0.483458      0.331962
H     10.62451      7.64558     15.10445         0.219879      0.753138     -0.047155
H     10.62451     13.33282      5.87395         0.120719     -0.560179      0.205081
H     10.35389     13.33282     15.10445         0.044706     -0.287055     -0.133733
H      7.64558      5.87395     10.35389         0.340059      0.093112      0.013912
H      7.64558     15.10445     10.62451         0.370139     -0.112884      0.157267
H     13.33282      5.87395     10.62451        -0.317793      0.127089     -0.036637
H     13.33282     15.10445     10.35389        -0.653423     -0.132804      0.144214
H     12.45634     12.45634     19.01126         0.254736      0.270808     -0.229712
H     19.01126     19.01126     19.01126        -0.245894     -0.268550     -0.245387
H     19.01126     12.45634     12.45634        -0.251789      0.269243      0.235147
H     12.45634     19.01126     12.45634         0.290292     -0.235856      0.234054
C     10.35284      5.61067      6.59456         0.396599     -0.428072     -1.459574
C     10.62556     15.36773      6.59456        -0.160985      0.567320     -0.626960
C     10.62556      5.61067     14.38384         0.388054     -0.348765      0.846934
C     10.35284     15.36773     14.38384        -0.234315      0.224610      1.110704
C      6.59456     10.35284      5.61067        -1.376364      0.020224     -0.246861
C      6.59456     10.62556     15.36773        -0.653592      0.059552      0.382316
C     14.38384     10.62556      5.61067         1.302450     -0.170872     -0.619527
C     14.38384     10.35284     15.36773         0.378288     -0.121919      0.358424
C      5.61067      6.59456     10.35284        -0.296499     -0.620461     -0.011221
C     15.36773      6.59456     10.62556         0.420249     -1.004131      0.030575
C      5.61067     14.38384     10.62556        -0.119004      1.158891     -0.181731
C     15.36773     14.38384     10.35284         0.458562      0.647476     -0.025978
C      5.61067     10.35284      6.59456        -0.364113     -0.102031     -0.712428
C     15.36773     10.62556      6.59456         0.418813      0.120134     -0.751671
C      5.61067     10.62556     14.38384        -0.383968     -0.175918      1.230576
C     15.36773     10.35284     14.38384         0.283857      0.190854      1.511911
C     10.35284      6.59456      5.61067        -0.050421     -0.714614     -0.632009
C     10.62556      6.59456     15.36773        -0.093558     -0.831624      0.344918
C     10.62556     14.38384      5.61067        -0.455468      0.420022     -0.696453
C     10.35284     14.38384     15.36773        -0.152756      0.588872      0.411142
C      6.59456      5.61067     10.35284        -0.498509     -0.339270      0.042647
C      6.59456     15.36773     10.62556        -0.399867      0.469580      0.049738
C     14.38384      5.61067     10.62556         0.449264     -0.387520      0.005113
C     14.38384     15.36773     10.35284         1.122683      0.506206     -0.071396
C     10.40319      3.19606      7.29314         0.001393      0.639757     -0.338477
C     10.35913      4.25547      6.23373         0.002409     -0.444757      0.292840
C      0.08601      7.29314      7.29314        -0.013432     -0.356498     -0.496315
C      0.13007      6.23373      6.23373        -0.080502      0.826011      0.062676
C      0.08601      3.19606      3.19606        -0.001661      0.670412      0.270162
C      0.13007      4.25547      4.25547         0.022581     -0.271480     -0.520105
C     10.40319      7.29314      3.19606        -0.067518     -1.152635      0.551814
C     10.35913      6.23373      4.25547        -0.038552      0.375003     -0.194183
C      7.29314     10.40319      3.19606        -1.083309     -0.058087      0.184618
C      6.23373     10.35913      4.25547         0.362780      0.081811     -0.537110
C      7.29314      0.08601      7.29314        -0.411113      0.034363     -0.563041
C      6.23373      0.13007      6.23373         0.177950      0.132776      0.131010
C      3.19606      0.08601      3.19606         0.696540      0.024590      0.165114
C      4.25547      0.13007      4.25547        -0.169525     -0.051708     -0.366656
C      3.19606     10.40319      7.29314         0.385521     -0.024493     -0.868612
C      4.25547     10.35913      6.23373        -0.163710     -0.084283      0.095923
C      3.19606      7.29314     10.40319         0.598202     -0.384619      0.001082
C      4.25547      6.23373     10.35913        -0.120354      0.180596      0.000312
C      7.29314      7.29314      0.08601        -0.402662     -0.327803     -0.015301
C      6.23373      6.23373      0.13007         0.199880      0.194112     -0.056389
C      3.19606      3.19606      0.08601         0.290756      0.480605     -0.023374
C      4.25547      4.25547      0.13007        -0.398951     -0.226278     -0.030317
C      7.29314      3.19606     10.40319        -0.281674      0.588604     -0.013716
C      6.23373      4.25547     10.35913         0.002283     -0.127616      0.022413
O     10.43466      3.58206      8.50569        -0.030252      0.104020      0.331024
O     10.54374     17.39634      8.50569         0.066903     -0.134286      0.591752
O     10.54374      3.58206     12.47271         0.026734      0.107815     -0.390022
O     10.43466     17.39634     12.47271         0.088917     -0.046687     -0.365130
O      8.50569     10.43466      3.58206         0.715810     -0.061068      0.015004
O      8.50569     10.54374     17.39634         0.451749      0.054504     -0.070654
O     12.47271     10.54374      3.58206        -0.653072      0.112984      0.204066
O     12.47271     10.43466     17.39634        -0.287762     -0.004979      0.013532
O      3.58206      8.50569     10.43466         0.045711      0.460918     -0.065328
O     17.39634      8.50569     10.54374        -0.061698      0.462111      0.054882
O      3.58206     12.47271     10.54374         0.113232     -0.584499      0.003014
O     17.39634     12.47271     10.43466        -0.168054     -0.736164     -0.061468
O      3.58206     10.43466      8.50569         0.217708     -0.063294      0.780180
O     17.39634     10.54374      8.50569        -0.116842      0.077771      0.597179
O      3.58206     10.54374     12.47271         0.000321     -0.001143     -0.270477
O     17.39634     10.43466     12.47271         0.043027     -0.013198     -0.212100
O     10.43466      8.50569      3.58206        -0.105608      0.576620     -0.112650
O     10.54374      8.50569     17.39634         0.064231      0.502919     -0.100296
O     10.54374     12.47271      3.58206         0.104702     -0.623952      0.134323
O     10.43466     12.47271     17.39634        -0.061608     -0.628658     -0.238723
O      8.50569      3.58206     10.43466         0.398425      0.029547     -0.032088
O      8.50569     17.39634     10.54374         0.628020     -0.152210      0.050373
O     12.47271      3.58206     10.54374        -0.508721      0.126373      0.037232
O     12.47271     17.39634     10.43466        -0.621224     -0.140230      0.035334
O     11.90042     11.90042     19.56718        -0.274656     -0.308404      0.237175
O     19.56718     19.56718     19.56718         0.301759      0.319062      0.299465
O     19.56718     11.90042     11.90042         0.285337     -0.324627     -0.230707
O     11.90042     19.56718     11.90042        -0.318000      0.230558     -0.202019
O      9.45224      1.03696      9.45224        -0.085112      0.083024     -0.066514
O      1.03696      9.45224      9.45224         0.098818     -0.116875     -0.044305
O      1.03696      1.03696      1.03696         0.081107      0.054646      0.100647
O      9.45224      9.45224      1.03696        -0.059089     -0.130422      0.131393
Zr     10.48920      2.52580     10.48920         0.033016     -0.086486      0.064695
Zr     10.48920     18.45260     10.48920        -0.169882      0.263212     -0.343503
Zr     10.48920     10.48920      2.52580         0.122803      0.354491     -0.356139
Zr     10.48920     10.48920     18.45260        -0.079392     -0.191240      0.171302
Zr      2.52580     10.48920     10.48920        -0.251770      0.124227      0.219402
Zr     18.45260     10.48920     10.48920         0.229773     -0.111291      0.008178
Pd      9.38435     14.21651      9.39878         0.007558      0.049255     -0.036869
Pd      8.63405     13.71103     12.98596        -0.002437      0.008922      0.000917
Pd     12.01245     14.41504      8.75956         0.018660      0.003234     -0.017029
Pd     12.78670     12.79817     10.60807        -0.017117      0.018815      0.027535
Pd     12.17189      7.10061     12.60796        -0.026640      0.011809      0.014059
Pd     11.24676     14.79666     11.54051        -0.041645      0.032736     -0.031982
Pd     10.11685     12.45758     11.15655        -0.014142      0.050624     -0.042604
Pd     13.47373     12.13401      7.97178         0.006314      0.001107      0.011980
Pd     11.47074     11.54971      6.11890         0.008067      0.006493     -0.010584
Pd      7.83939      8.58844      7.55921         0.019852     -0.033238     -0.012022
Pd      8.74497     11.72654      6.90231        -0.010188      0.006219     -0.008071
Pd     10.31457      9.45331      8.13601        -0.011075      0.008758      0.011461
Pd      8.50662     14.42602      6.88420         0.006010      0.008753     -0.035563
Pd     12.37324      9.02832      6.57470        -0.006750      0.006707      0.012679
Pd      9.73833      9.60317      5.55318         0.000508      0.002063      0.006640
Pd      6.88358      9.46754     12.19137        -0.022302     -0.009022      0.001271
Pd     12.21282      6.67264      7.84827        -0.002857      0.015247      0.024474
Pd      5.96354     10.49293      9.74107        -0.008953     -0.024857     -0.014857
Pd      7.56577      7.09769     13.17455         0.003426      0.037549      0.086716
Ir     11.83525      9.68977     13.06222        -0.048892      0.007168     -0.008948
Ir     13.59392      8.97906     11.42908        -0.012444      0.013501      0.021193
Ir      9.42548      8.80909     13.81452        -0.000852      0.081249      0.045951
Ir     10.57809     10.91341     14.85250        -0.041779     -0.022507     -0.000608
Ir      7.31706     12.04923     11.37763        -0.073933      0.006465     -0.043891
Ir     14.70610     10.81759     10.06291        -0.014893      0.015539      0.035083
Ir     12.20629     10.45685      9.65144         0.001396      0.030153      0.015925
Ir      8.77759     11.05099     13.04051         0.080283     -0.084552      0.056503
Ir     10.16242      9.83152     11.24971        -0.018260     -0.014830      0.000378
Ir     13.80343     11.35161     12.38057        -0.037624      0.010373      0.026386
Ir     11.71321     12.29255     13.12379        -0.075002     -0.002059     -0.011235
Ir      8.54653     11.05836      9.40673        -0.016143      0.021108     -0.038536
Ir     11.60210      7.95934     10.04985        -0.029327      0.006022      0.021326
Ir      7.22268     12.96651      8.69417         0.022243      0.025699      0.005719
Ir      9.51028      6.99779      9.07530         0.005948      0.029761      0.048443
Ir      8.08570      8.73469     10.11816         0.009464     -0.023934     -0.012748
Ir     10.76729     12.07868      8.55446        -0.009791      0.021018     -0.025328
Ir      9.59955      7.38689     11.63190        -0.010936      0.071232     -0.018556
Ir     13.70422      8.67130      8.78726         0.000304      0.031207      0.011461
