152
# total energy = -1060.15434929 eVH     10.35389      5.87395      7.64558        -0.318262      0.101158      1.088210
H     10.62451     15.10445      7.64558         0.081923     -0.070436      0.897822
H     10.62451      5.87395     13.33282        -0.270273      0.073195     -0.783605
H     10.35389     15.10445     13.33282         0.093138     -0.303183     -0.822199
H      7.64558     10.35389      5.87395         0.894538     -0.202633      0.206714
H      7.64558     10.62451     15.10445         0.315561     -0.028112     -0.062201
H     13.33282     10.62451      5.87395        -0.886591      0.220320      0.221516
H     13.33282     10.35389     15.10445        -0.282207     -0.029619     -0.060714
H      5.87395      7.64558     10.35389         0.093015      0.421479     -0.011993
H     15.10445      7.64558     10.62451        -0.042474      0.437443     -0.030406
H      5.87395     13.33282     10.62451        -0.017009     -0.969209      0.078205
H     15.10445     13.33282     10.35389        -0.083470     -0.327141      0.001782
H      5.87395     10.35389      7.64558         0.318685      0.062279      0.370755
H     15.10445     10.62451      7.64558        -0.119613     -0.158621      0.667302
H      5.87395     10.62451     13.33282        -0.062267      0.452278     -0.601012
H     15.10445     10.35389     13.33282         0.227684     -0.637213     -0.876727
H     10.35389      7.64558      5.87395        -0.021188      0.500439      0.345543
H     10.62451      7.64558     15.10445         0.333043      0.789441     -0.005792
H     10.62451     13.33282      5.87395         0.153230     -0.568975      0.202028
H     10.35389     13.33282     15.10445         0.033011     -0.288879     -0.166403
H      7.64558      5.87395     10.35389         0.370230      0.113794      0.063542
H      7.64558     15.10445     10.62451         0.388526     -0.127974      0.178828
H     13.33282      5.87395     10.62451        -0.306984      0.137516     -0.014315
H     13.33282     15.10445     10.35389        -0.658798     -0.106834      0.136849
H     12.45634     12.45634     19.01126         0.259067      0.272425     -0.226272
H     19.01126     19.01126     19.01126        -0.247984     -0.267269     -0.244358
H     19.01126     12.45634     12.45634        -0.249094      0.271675      0.236863
H     12.45634     19.01126     12.45634         0.289958     -0.235121      0.235298
C     10.35284      5.61067      6.59456         0.402844     -0.419905     -1.358979
C     10.62556     15.36773      6.59456        -0.167969      0.609384     -0.660266
C     10.62556      5.61067     14.38384         0.365930     -0.275571      0.777733
C     10.35284     15.36773     14.38384        -0.205557      0.219343      1.026863
C      6.59456     10.35284      5.61067        -1.395908      0.032549     -0.228656
C      6.59456     10.62556     15.36773        -0.666396      0.065414      0.356508
C     14.38384     10.62556      5.61067         1.308608     -0.186938     -0.629655
C     14.38384     10.35284     15.36773         0.318436     -0.131974      0.351859
C      5.61067      6.59456     10.35284        -0.274236     -0.672809     -0.030352
C     15.36773      6.59456     10.62556         0.410095     -0.858104      0.028464
C      5.61067     14.38384     10.62556        -0.148099      1.195351     -0.219296
C     15.36773     14.38384     10.35284         0.504539      0.706610     -0.036957
C      5.61067     10.35284      6.59456        -0.372981     -0.102244     -0.779526
C     15.36773     10.62556      6.59456         0.403003      0.107087     -0.679618
C      5.61067     10.62556     14.38384        -0.409176     -0.163240      1.218776
C     15.36773     10.35284     14.38384         0.232605      0.225434      1.415907
C     10.35284      6.59456      5.61067        -0.069234     -0.747169     -0.548509
C     10.62556      6.59456     15.36773        -0.142636     -0.981408      0.376372
C     10.62556     14.38384      5.61067        -0.493641      0.380640     -0.738475
C     10.35284     14.38384     15.36773        -0.174435      0.740424      0.494394
C      6.59456      5.61067     10.35284        -0.563056     -0.336496      0.003126
C      6.59456     15.36773     10.62556        -0.365525      0.446967      0.065106
C     14.38384      5.61067     10.62556         0.434329     -0.310498      0.008156
C     14.38384     15.36773     10.35284         1.131232      0.487326     -0.078350
C     10.40319      3.19606      7.29314        -0.007460      0.781563     -0.336423
C     10.35913      4.25547      6.23373         0.023652     -0.379334      0.290144
C      0.08601      7.29314      7.29314        -0.018581     -0.380232     -0.506030
C      0.13007      6.23373      6.23373        -0.047340      0.880870      0.092745
C      0.08601      3.19606      3.19606        -0.007156      0.696086      0.260550
C      0.13007      4.25547      4.25547         0.045722     -0.266154     -0.547333
C     10.40319      7.29314      3.19606        -0.064040     -1.116100      0.619543
C     10.35913      6.23373      4.25547        -0.046549      0.347071     -0.203080
C      7.29314     10.40319      3.19606        -1.094093     -0.054738      0.201070
C      6.23373     10.35913      4.25547         0.380193      0.101702     -0.521934
C      7.29314      0.08601      7.29314        -0.478219      0.029117     -0.441287
C      6.23373      0.13007      6.23373         0.179709      0.122169      0.120362
C      3.19606      0.08601      3.19606         0.702340      0.023378      0.171148
C      4.25547      0.13007      4.25547        -0.172416     -0.050294     -0.366532
C      3.19606     10.40319      7.29314         0.371118     -0.026498     -0.951783
C      4.25547     10.35913      6.23373        -0.128937     -0.054622      0.114841
C      3.19606      7.29314     10.40319         0.615213     -0.399049      0.002419
C      4.25547      6.23373     10.35913        -0.115243      0.177955      0.011299
C      7.29314      7.29314      0.08601        -0.429025     -0.294356     -0.015331
C      6.23373      6.23373      0.13007         0.149330      0.154424     -0.062408
C      3.19606      3.19606      0.08601         0.293589      0.492107     -0.024930
C      4.25547      4.25547      0.13007        -0.403350     -0.239836     -0.031087
C      7.29314      3.19606     10.40319        -0.283707      0.593903     -0.009707
C      6.23373      4.25547     10.35913         0.016329     -0.092969      0.014971
O     10.43466      3.58206      8.50569        -0.026319      0.073851      0.303519
O     10.54374     17.39634      8.50569         0.064211     -0.123702      0.593076
O     10.54374      3.58206     12.47271         0.029246      0.101610     -0.398100
O     10.43466     17.39634     12.47271         0.094400     -0.062018     -0.433182
O      8.50569     10.43466      3.58206         0.734931     -0.072207      0.015427
O      8.50569     10.54374     17.39634         0.534492      0.062051     -0.103130
O     12.47271     10.54374      3.58206        -0.656750      0.112478      0.210938
O     12.47271     10.43466     17.39634        -0.280566      0.004233      0.036848
O      3.58206      8.50569     10.43466         0.033905      0.444533     -0.063080
O     17.39634      8.50569     10.54374        -0.054123      0.446600      0.056428
O      3.58206     12.47271     10.54374         0.104282     -0.587793      0.004156
O     17.39634     12.47271     10.43466        -0.182227     -0.741425     -0.049357
O      3.58206     10.43466      8.50569         0.208669     -0.061005      0.806960
O     17.39634     10.54374      8.50569        -0.073578      0.071667      0.490786
O      3.58206     10.54374     12.47271        -0.003809     -0.004982     -0.261839
O     17.39634     10.43466     12.47271         0.034799     -0.010186     -0.233114
O     10.43466      8.50569      3.58206        -0.107128      0.533088     -0.101009
O     10.54374      8.50569     17.39634         0.059557      0.510502     -0.083992
O     10.54374     12.47271      3.58206         0.102841     -0.638458      0.129381
O     10.43466     12.47271     17.39634        -0.065725     -0.692199     -0.275950
O      8.50569      3.58206     10.43466         0.396656      0.022817     -0.046075
O      8.50569     17.39634     10.54374         0.641046     -0.154369      0.046134
O     12.47271      3.58206     10.54374        -0.516482      0.121402      0.028709
O     12.47271     17.39634     10.43466        -0.624500     -0.124497      0.040783
O     11.90042     11.90042     19.56718        -0.278404     -0.304080      0.223030
O     19.56718     19.56718     19.56718         0.309718      0.322370      0.298153
O     19.56718     11.90042     11.90042         0.283815     -0.325300     -0.235443
O     11.90042     19.56718     11.90042        -0.314362      0.229532     -0.201222
O      9.45224      1.03696      9.45224        -0.074625      0.087536     -0.079200
O      1.03696      9.45224      9.45224         0.101093     -0.109160     -0.061032
O      1.03696      1.03696      1.03696         0.079293      0.054061      0.098473
O      9.45224      9.45224      1.03696        -0.058379     -0.125696      0.136389
Zr     10.48920      2.52580     10.48920         0.043186     -0.094058      0.121398
Zr     10.48920     18.45260     10.48920        -0.182234      0.247777     -0.360162
Zr     10.48920     10.48920      2.52580         0.111936      0.358236     -0.346015
Zr     10.48920     10.48920     18.45260        -0.080062     -0.259568      0.234386
Zr      2.52580     10.48920     10.48920        -0.240176      0.131283      0.244238
Zr     18.45260     10.48920     10.48920         0.196141     -0.137387     -0.021551
Pd      9.36103     14.30136      9.31413        -0.000343      0.017402     -0.030383
Pd      8.59056     13.64173     13.04352         0.010646     -0.002282      0.015890
Pd     12.02450     14.40542      8.74411         0.006453     -0.014701      0.013007
Pd     12.75713     12.87692     10.68103        -0.038250      0.002192      0.043534
Pd     12.11994      7.19148     12.67613         0.002781      0.002657     -0.006038
Pd     11.16000     14.90083     11.45488        -0.017480      0.021167     -0.016301
Pd     10.03599     12.55273     11.08543        -0.041476      0.034859     -0.020957
Pd     13.47979     12.15396      7.98342         0.008719      0.006687      0.006289
Pd     11.47969     11.54212      6.10820         0.005903      0.010695      0.002129
Pd      7.94220      8.38008      7.52418        -0.001551     -0.025771     -0.010379
Pd      8.72052     11.75657      6.84394        -0.008426      0.009072      0.010952
Pd     10.32239      9.45323      8.15042        -0.013282     -0.005343      0.005757
Pd      8.49780     14.46399      6.79210        -0.010380      0.003009     -0.016171
Pd     12.39793      9.01756      6.56835        -0.007849      0.024675      0.030288
Pd      9.71747      9.60928      5.57304         0.006587      0.004060      0.003490
Pd      6.81573      9.45263     12.13969         0.020498      0.013699      0.006078
Pd     12.17808      6.74356      7.95325         0.012431      0.006237      0.006834
Pd      5.91364     10.48326      9.69191        -0.001096     -0.004010      0.006541
Pd      7.54941      7.23986     13.40799         0.009654     -0.002598     -0.014067
Ir     11.73463      9.77554     13.06726        -0.004547     -0.024782     -0.009091
Ir     13.55170      9.05676     11.47573        -0.020468      0.006595      0.018775
Ir      9.42465      8.86474     14.01062        -0.024517     -0.025218      0.007907
Ir     10.50550     11.01674     14.88856        -0.003671     -0.032242      0.077995
Ir      7.26955     12.01517     11.33929         0.010786     -0.010274      0.013276
Ir     14.64917     10.91285     10.15323        -0.009639      0.020400      0.030645
Ir     12.16317     10.57132      9.67756        -0.001060     -0.009396     -0.010914
Ir      8.74832     11.00029     12.98976        -0.005862      0.042582     -0.024963
Ir     10.10576      9.91734     11.17284         0.009482      0.008931     -0.022326
Ir     13.73584     11.41865     12.49109        -0.040443      0.003656      0.039000
Ir     11.58743     12.35351     13.08931        -0.067141     -0.020308      0.006975
Ir      8.49868     11.09693      9.33414        -0.020039      0.029392     -0.006363
Ir     11.59274      8.02719     10.14394         0.013351      0.004017      0.009725
Ir      7.21730     13.03188      8.65644         0.029971     -0.002576      0.017243
Ir      9.54793      6.96336      9.23968         0.004393     -0.009574     -0.007063
Ir      8.05336      8.76469     10.05831        -0.008562     -0.008103     -0.000727
Ir     10.72140     12.12333      8.50292         0.000164      0.004022     -0.009262
Ir      9.51361      7.57278     11.75604         0.003691      0.004893      0.005819
Ir     13.66763      8.79852      8.84224         0.016561      0.000184      0.019980
