152
# total energy = -1061.41963754 eVH     10.35389      5.87395      7.64558        -0.131784      0.122501      0.976742
H     10.62451     15.10445      7.64558         0.297755     -0.086689      0.814441
H     10.62451      5.87395     13.33282        -0.130990      0.083925     -0.495247
H     10.35389     15.10445     13.33282         0.082570     -0.199852     -0.401561
H      7.64558     10.35389      5.87395         0.898130      0.128096      0.211462
H      7.64558     10.62451     15.10445         0.201393     -0.014933     -0.063756
H     13.33282     10.62451      5.87395        -0.645863     -0.008208      0.167835
H     13.33282     10.35389     15.10445        -0.322223     -0.071640     -0.059554
H      5.87395      7.64558     10.35389         0.139864      0.356164     -0.053259
H     15.10445      7.64558     10.62451        -0.135385      0.545784      0.229115
H      5.87395     13.33282     10.62451         0.126384     -0.576367      0.057253
H     15.10445     13.33282     10.35389        -0.238695     -0.427392      0.087896
H      5.87395     10.35389      7.64558         0.180366      0.211323      0.365512
H     15.10445     10.62451      7.64558        -0.159036     -0.278341      0.628766
H      5.87395     10.62451     13.33282         0.033323      0.122158     -0.712881
H     15.10445     10.35389     13.33282         0.084237     -0.266009     -0.714217
H     10.35389      7.64558      5.87395        -0.101359      0.433975      0.242841
H     10.62451      7.64558     15.10445         0.415769      0.667675     -0.103451
H     10.62451     13.33282      5.87395         0.192118     -0.584419      0.111340
H     10.35389     13.33282     15.10445         0.195475     -0.731995     -0.073019
H      7.64558      5.87395     10.35389         0.456269      0.155562     -0.103701
H      7.64558     15.10445     10.62451         0.436235     -0.165209      0.376120
H     13.33282      5.87395     10.62451        -0.373614      0.156803     -0.065163
H     13.33282     15.10445     10.35389        -0.555989     -0.263252      0.126586
H     12.45634     12.45634     19.01126         0.236041      0.264631     -0.244257
H     19.01126     19.01126     19.01126        -0.259889     -0.263107     -0.226720
H     19.01126     12.45634     12.45634        -0.232416      0.270721      0.241375
H     12.45634     19.01126     12.45634         0.281471     -0.210583      0.251755
C     10.35284      5.61067      6.59456         0.291274     -0.288240     -0.852459
C     10.62556     15.36773      6.59456        -0.218243      0.641208     -0.306940
C     10.62556      5.61067     14.38384         0.271830     -0.324008      0.515113
C     10.35284     15.36773     14.38384        -0.121817      0.266165      0.281205
C      6.59456     10.35284      5.61067        -0.854069     -0.131243     -0.214062
C      6.59456     10.62556     15.36773        -0.550025      0.052439      0.348706
C     14.38384     10.62556      5.61067         0.892722     -0.036777     -0.597339
C     14.38384     10.35284     15.36773         0.271284     -0.088757      0.370025
C      5.61067      6.59456     10.35284        -0.382400     -0.402363      0.053300
C     15.36773      6.59456     10.62556         0.282056     -0.635251     -0.120777
C      5.61067     14.38384     10.62556        -0.162489      0.539705     -0.309021
C     15.36773     14.38384     10.35284         0.398563      0.808875     -0.106225
C      5.61067     10.35284      6.59456        -0.274423     -0.134201     -0.143600
C     15.36773     10.62556      6.59456         0.222855      0.243644     -0.506326
C      5.61067     10.62556     14.38384        -0.349357     -0.023427      1.216427
C     15.36773     10.35284     14.38384         0.298424     -0.055689      0.984299
C     10.35284      6.59456      5.61067         0.065281     -0.297977     -0.455604
C     10.62556      6.59456     15.36773        -0.017619     -0.862699      0.229918
C     10.62556     14.38384      5.61067        -0.404654      0.039661     -0.821713
C     10.35284     14.38384     15.36773        -0.240345      0.912209      0.234790
C      6.59456      5.61067     10.35284        -0.377585     -0.276583      0.213278
C      6.59456     15.36773     10.62556        -0.472918      0.564467      0.008217
C     14.38384      5.61067     10.62556         0.432653     -0.329614      0.064678
C     14.38384     15.36773     10.35284         0.885308      0.270278     -0.060738
C     10.40319      3.19606      7.29314         0.003077      0.570590     -0.312845
C     10.35913      4.25547      6.23373        -0.000987     -0.493128      0.433331
C      0.08601      7.29314      7.29314        -0.015328     -0.904161     -0.508072
C      0.13007      6.23373      6.23373        -0.159266      0.866039      0.152906
C      0.08601      3.19606      3.19606        -0.013858      0.367337      0.379601
C      0.13007      4.25547      4.25547         0.057728     -0.180530     -0.627216
C     10.40319      7.29314      3.19606        -0.048702     -1.104953      0.803576
C     10.35913      6.23373      4.25547         0.011591      0.336756     -0.191805
C      7.29314     10.40319      3.19606        -1.160786     -0.077296      0.350053
C      6.23373     10.35913      4.25547         0.271979      0.028051     -0.641875
C      7.29314      0.08601      7.29314        -0.911128     -0.003807     -0.414251
C      6.23373      0.13007      6.23373         0.271930      0.042028      0.127380
C      3.19606      0.08601      3.19606         0.325002     -0.002548      0.408585
C      4.25547      0.13007      4.25547        -0.283184     -0.043270     -0.170296
C      3.19606     10.40319      7.29314         0.499121     -0.046071     -1.025399
C      4.25547     10.35913      6.23373        -0.292946     -0.058436      0.110614
C      3.19606      7.29314     10.40319         0.982527     -0.496066      0.006008
C      4.25547      6.23373     10.35913        -0.154135      0.165057      0.000465
C      7.29314      7.29314      0.08601        -0.435732     -0.279582     -0.006215
C      6.23373      6.23373      0.13007         0.230657      0.086162     -0.138642
C      3.19606      3.19606      0.08601         0.341531      0.758099     -0.009821
C      4.25547      4.25547      0.13007        -0.439156     -0.201904      0.049129
C      7.29314      3.19606     10.40319        -0.205068      0.546530      0.021198
C      6.23373      4.25547     10.35913         0.020982     -0.303447      0.028845
O     10.43466      3.58206      8.50569        -0.022365      0.131813      0.367172
O     10.54374     17.39634      8.50569         0.052983      0.064116      0.308211
O     10.54374      3.58206     12.47271         0.042237      0.202607     -0.570838
O     10.43466     17.39634     12.47271         0.028602     -0.002109     -0.438640
O      8.50569     10.43466      3.58206         0.746956     -0.071110      0.044461
O      8.50569     10.54374     17.39634         0.893578      0.023480     -0.160062
O     12.47271     10.54374      3.58206        -0.343586      0.041791      0.069440
O     12.47271     10.43466     17.39634        -0.371662     -0.032891      0.050384
O      3.58206      8.50569     10.43466        -0.068277      0.338311     -0.079243
O     17.39634      8.50569     10.54374        -0.112859      0.440088      0.036822
O      3.58206     12.47271     10.54374         0.135455     -0.755463     -0.011426
O     17.39634     12.47271     10.43466        -0.249798     -0.660586     -0.013857
O      3.58206     10.43466      8.50569         0.127940     -0.040488      0.802964
O     17.39634     10.54374      8.50569         0.028494      0.043960      0.301973
O      3.58206     10.54374     12.47271         0.071585      0.017564     -0.460600
O     17.39634     10.43466     12.47271         0.012247      0.018526     -0.290054
O     10.43466      8.50569      3.58206        -0.065625      0.590851     -0.075615
O     10.54374      8.50569     17.39634         0.020942      0.908444     -0.212756
O     10.54374     12.47271      3.58206         0.062328     -0.361804      0.087367
O     10.43466     12.47271     17.39634        -0.059048     -0.643593     -0.197068
O      8.50569      3.58206     10.43466         0.336323      0.068718     -0.051871
O      8.50569     17.39634     10.54374         0.516477     -0.139381      0.004893
O     12.47271      3.58206     10.54374        -0.387249      0.075766      0.031823
O     12.47271     17.39634     10.43466        -0.763720     -0.111342      0.060153
O     11.90042     11.90042     19.56718        -0.249562     -0.281489      0.234063
O     19.56718     19.56718     19.56718         0.292460      0.299267      0.244308
O     19.56718     11.90042     11.90042         0.230971     -0.299446     -0.284104
O     11.90042     19.56718     11.90042        -0.277566      0.179277     -0.263265
O      9.45224      1.03696      9.45224        -0.119840      0.106899     -0.082643
O      1.03696      9.45224      9.45224         0.146857     -0.136157     -0.169124
O      1.03696      1.03696      1.03696         0.136201      0.200839     -0.004703
O      9.45224      9.45224      1.03696        -0.214038     -0.160251      0.048647
Zr     10.48920      2.52580     10.48920         0.015282     -0.241775      0.162995
Zr     10.48920     18.45260     10.48920        -0.286302      0.268699     -0.202429
Zr     10.48920     10.48920      2.52580         0.304346      0.436581     -0.222515
Zr     10.48920     10.48920     18.45260         0.034574      0.002639      0.498945
Zr      2.52580     10.48920     10.48920        -0.556072      0.060198      0.333480
Zr     18.45260     10.48920     10.48920         0.275145     -0.166688      0.023409
Pd      9.10056     14.53211      9.20553         0.081052     -0.013276      0.014213
Pd      8.39991     13.24721     13.78560         0.021998     -0.038723      0.006663
Pd     12.05827     14.15958      8.70110         0.078527      0.039103     -0.051605
Pd     12.29563     12.76565     10.89549        -0.054524     -0.058021      0.055897
Pd     11.83720      7.08621     12.02176        -0.017161      0.049901     -0.055907
Pd     11.06552     15.32416     10.92262         0.003972     -0.054865     -0.001766
Pd      9.63849     13.10889     11.43024         0.007867      0.019059      0.003183
Pd     14.00340     12.44090      8.09255         0.003621      0.014568      0.049907
Pd     11.63188     11.74001      6.79679        -0.021352      0.023660     -0.031068
Pd      7.54658      8.51819      7.22454        -0.010136      0.004199      0.012664
Pd      8.68614     11.98304      6.91036         0.030695     -0.005691      0.021132
Pd      9.82430      9.84373      8.04043        -0.008274     -0.003384      0.016642
Pd      8.48433     14.62405      6.54629         0.006778      0.014745      0.050360
Pd     12.14653      9.05149      6.89665        -0.029459      0.019243      0.027270
Pd      9.99862      9.97477      5.42295        -0.005587      0.006982      0.030796
Pd      6.93990      9.18095     12.20479        -0.020149     -0.008131     -0.004845
Pd     12.44974      6.53969      7.74468        -0.038149     -0.047010      0.010921
Pd      5.60665     10.60678     10.09460        -0.042714     -0.006672     -0.013534
Pd      7.64638      6.64162     12.80529        -0.050095     -0.009709     -0.042754
Ir     11.30091      9.56777     12.91571        -0.021114      0.001536      0.010843
Ir     13.10976      9.23407     11.18528        -0.035382     -0.075135     -0.088445
Ir      9.17039      8.43838     13.82702         0.004059      0.046422     -0.007738
Ir     10.25793     10.38610     15.14162         0.073209      0.047426     -0.043865
Ir      7.10252     11.85892     11.83927        -0.000371      0.054027      0.056074
Ir     14.49053     11.13412     10.40287        -0.045026      0.065815     -0.055376
Ir     12.33940     10.60522      9.13984        -0.052364     -0.024328     -0.028298
Ir      8.93027     10.80221     12.94811        -0.015853      0.062418     -0.092433
Ir     10.05090     10.28148     10.67842         0.006721      0.000822      0.005329
Ir     13.29980     11.24536     12.65765         0.009700      0.061581      0.036359
Ir     11.09899     12.05490     13.41378         0.040531     -0.035197     -0.059057
Ir      7.97262     11.69476      9.52665         0.092080      0.043289     -0.039330
Ir     11.34964      8.13879      9.54494         0.080584      0.006578     -0.002801
Ir      6.92220     13.42846      8.25781         0.076162      0.008731     -0.012027
Ir      9.14820      7.26207      8.87147        -0.081644     -0.002266     -0.081894
Ir      7.80564      9.18225      9.74600         0.012075     -0.029897     -0.014411
Ir     10.39108     12.28752      9.00686        -0.080059     -0.014340     -0.029050
Ir      9.37427      7.88655     11.32715        -0.002072     -0.001185     -0.029082
Ir     13.81529      8.46939      8.88314        -0.114873      0.027269      0.033681
