152
# total energy = -1022.86862465 eVH     10.35389      5.87395      7.64558         0.477575      0.031655      0.906755
H     10.62451     15.10445      7.64558        -0.047559      0.030857      0.767215
H     10.62451      5.87395     13.33282         0.143626      0.116717     -0.605433
H     10.35389     15.10445     13.33282        -0.270606     -0.075071     -0.571106
H      7.64558     10.35389      5.87395         0.334718     -0.036212      0.190849
H      7.64558     10.62451     15.10445         0.615764     -0.188630     -0.139346
H     13.33282     10.62451      5.87395        -0.849596     -0.309553      0.169562
H     13.33282     10.35389     15.10445        -0.468211     -0.094641     -0.057720
H      5.87395      7.64558     10.35389         0.126437      1.122969     -0.148782
H     15.10445      7.64558     10.62451        -0.168326      0.404403     -0.086044
H      5.87395     13.33282     10.62451         0.143761     -0.408248     -0.071279
H     15.10445     13.33282     10.35389        -0.077463     -0.969349     -0.189810
H      5.87395     10.35389      7.64558         0.130472      0.040838      0.482301
H     15.10445     10.62451      7.64558         0.124560     -0.208983      0.819104
H      5.87395     10.62451     13.33282         0.267013     -0.030365     -0.393911
H     15.10445     10.35389     13.33282        -0.142500      0.011358     -0.632402
H     10.35389      7.64558      5.87395         0.064476      0.843178      0.120085
H     10.62451      7.64558     15.10445         0.029037      0.548882     -0.145103
H     10.62451     13.33282      5.87395         0.063850     -0.605852      0.188944
H     10.35389     13.33282     15.10445        -0.255834     -0.886530     -0.105713
H      7.64558      5.87395     10.35389         0.526273      0.040436     -0.134553
H      7.64558     15.10445     10.62451         0.905876     -0.216610      0.286486
H     13.33282      5.87395     10.62451        -0.435462      0.186522     -0.058867
H     13.33282     15.10445     10.35389        -0.985375     -0.102941      0.235946
H     12.45634     12.45634     19.01126         0.267121      0.257905     -0.224549
H     19.01126     19.01126     19.01126        -0.247612     -0.234697     -0.262624
H     19.01126     12.45634     12.45634        -0.241275      0.270317      0.238632
H     12.45634     19.01126     12.45634         0.211625     -0.283043      0.252470
C     10.35284      5.61067      6.59456        -0.129766     -0.431370     -0.406501
C     10.62556     15.36773      6.59456         0.022850      0.345590     -1.148301
C     10.62556      5.61067     14.38384        -0.025949     -0.219386      0.723453
C     10.35284     15.36773     14.38384         0.184996      0.777811      0.146110
C      6.59456     10.35284      5.61067        -0.421864     -0.040017     -0.184437
C      6.59456     10.62556     15.36773        -0.790410      0.149225      0.351134
C     14.38384     10.62556      5.61067         0.621221      0.278442     -0.371831
C     14.38384     10.35284     15.36773         0.742945     -0.122277      0.432565
C      5.61067      6.59456     10.35284        -0.426030     -0.757381      0.276952
C     15.36773      6.59456     10.62556         0.194685     -0.471251      0.045862
C      5.61067     14.38384     10.62556        -0.250710      0.383889     -0.024464
C     15.36773     14.38384     10.35284         0.406645      0.128644      0.173313
C      5.61067     10.35284      6.59456        -0.306594     -0.013377     -0.886245
C     15.36773     10.62556      6.59456         0.566012     -0.151584     -1.230665
C      5.61067     10.62556     14.38384        -0.458567      0.007016      0.885740
C     15.36773     10.35284     14.38384         0.529191     -0.180672      1.247506
C     10.35284      6.59456      5.61067        -0.038180     -0.912371     -0.676333
C     10.62556      6.59456     15.36773         0.041438     -0.652673      0.295911
C     10.62556     14.38384      5.61067         0.045030      1.250504     -0.682985
C     10.35284     14.38384     15.36773         0.093254      0.589574      0.670091
C      6.59456      5.61067     10.35284        -0.219643     -0.891550      0.126542
C      6.59456     15.36773     10.62556        -1.719859      0.493535      0.049975
C     14.38384      5.61067     10.62556         0.581686     -0.223381     -0.006806
C     14.38384     15.36773     10.35284         0.126936      0.561039     -0.244312
C     10.40319      3.19606      7.29314         0.016827      0.917612     -0.255449
C     10.35913      4.25547      6.23373        -0.051818     -0.366736      0.619424
C      0.08601      7.29314      7.29314        -0.008896     -0.238319     -0.473477
C      0.13007      6.23373      6.23373         0.002728      0.113925      0.206768
C      0.08601      3.19606      3.19606        -0.016381      0.649552      0.179930
C      0.13007      4.25547      4.25547        -0.089888     -0.198575     -0.172119
C     10.40319      7.29314      3.19606        -0.000770     -0.698095      0.529075
C     10.35913      6.23373      4.25547        -0.005731      0.522779     -0.395081
C      7.29314     10.40319      3.19606        -0.345538      0.022995      0.848413
C      6.23373     10.35913      4.25547         0.214690      0.015740     -0.142725
C      7.29314      0.08601      7.29314        -0.311299     -0.046507     -0.271080
C      6.23373      0.13007      6.23373         0.268607     -0.059526      0.296304
C      3.19606      0.08601      3.19606         0.443322     -0.052378      1.292125
C      4.25547      0.13007      4.25547        -0.114935     -0.030319     -0.461553
C      3.19606     10.40319      7.29314         0.712760      0.014732     -0.262876
C      4.25547     10.35913      6.23373        -0.137800      0.035168      0.109943
C      3.19606      7.29314     10.40319         0.604436     -1.264697      0.024757
C      4.25547      6.23373     10.35913        -0.709386      0.845654      0.050668
C      7.29314      7.29314      0.08601        -0.663398     -0.170760     -0.022306
C      6.23373      6.23373      0.13007         0.173983      0.265949     -0.008925
C      3.19606      3.19606      0.08601         0.242643      0.253617     -0.019385
C      4.25547      4.25547      0.13007        -0.052651     -0.036953      0.010883
C      7.29314      3.19606     10.40319        -0.373090      0.792205      0.015088
C      6.23373      4.25547     10.35913         0.882624     -0.156518      0.009579
O     10.43466      3.58206      8.50569        -0.049674      0.030253      0.318617
O     10.54374     17.39634      8.50569        -0.025115     -0.182186      0.604242
O     10.54374      3.58206     12.47271         0.055378      0.061127     -0.321859
O     10.43466     17.39634     12.47271        -0.023925     -0.123316     -0.581526
O      8.50569     10.43466      3.58206         0.384943     -0.023538     -0.011013
O      8.50569     10.54374     17.39634         0.472858      0.053360     -0.143072
O     12.47271     10.54374      3.58206        -0.288827      0.048273     -0.075412
O     12.47271     10.43466     17.39634        -0.856766      0.020883     -0.225672
O      3.58206      8.50569     10.43466         0.042433      0.921403      0.037118
O     17.39634      8.50569     10.54374        -0.037244      0.336511      0.078147
O      3.58206     12.47271     10.54374         0.063270     -0.422117      0.063787
O     17.39634     12.47271     10.43466        -0.170463     -0.776714      0.020259
O      3.58206     10.43466      8.50569        -0.057368     -0.066859      0.221837
O     17.39634     10.54374      8.50569        -0.135571      0.042279      0.458927
O      3.58206     10.54374     12.47271        -0.017687     -0.050305     -0.888849
O     17.39634     10.43466     12.47271        -0.197663      0.040897     -0.760021
O     10.43466      8.50569      3.58206         0.045811      0.687464      0.192203
O     10.54374      8.50569     17.39634         0.054531      0.433038     -0.078618
O     10.54374     12.47271      3.58206        -0.008843     -0.732126      0.227764
O     10.43466     12.47271     17.39634         0.050217     -0.859283     -0.276630
O      8.50569      3.58206     10.43466         0.493213      0.076134     -0.038569
O      8.50569     17.39634     10.54374         0.660515     -0.254393     -0.062682
O     12.47271      3.58206     10.54374        -0.485709      0.162882      0.039545
O     12.47271     17.39634     10.43466        -0.527180     -0.037882     -0.029492
O     11.90042     11.90042     19.56718        -0.303978     -0.312053      0.262915
O     19.56718     19.56718     19.56718         0.287638      0.271149      0.320639
O     19.56718     11.90042     11.90042         0.280389     -0.330201     -0.244201
O     11.90042     19.56718     11.90042        -0.229560      0.290745     -0.241146
O      9.45224      1.03696      9.45224        -0.074010      0.048569     -0.067006
O      1.03696      9.45224      9.45224         0.054508     -0.146495     -0.058605
O      1.03696      1.03696      1.03696         0.042115      0.034131      0.188162
O      9.45224      9.45224      1.03696        -0.039648     -0.092560      0.122101
Zr     10.48920      2.52580     10.48920        -0.007847     -0.074765     -0.023767
Zr     10.48920     18.45260     10.48920         0.063247      0.309361     -0.069067
Zr     10.48920     10.48920      2.52580        -0.099233      0.011459     -0.375896
Zr     10.48920     10.48920     18.45260        -0.139217     -0.157353      0.331926
Zr      2.52580     10.48920     10.48920        -0.351797      0.314218     -0.460420
Zr     18.45260     10.48920     10.48920         0.238595      0.038869     -0.263118
Pd      9.03915     10.26462     13.34115        -0.010978     -0.010776      0.002487
Pd     10.58297      9.72404     10.97780        -0.004743     -0.009901     -0.038914
Pd     13.76680      8.55319     12.68199         0.006559      0.004109     -0.003468
Pd     10.99982     11.07409     15.03102        -0.001959     -0.016345     -0.001887
Pd     12.87172     11.20088     13.04448         0.018300      0.006284      0.009659
Pd     14.97650     10.93937     11.33996         0.004969      0.013789     -0.008915
Pd      6.65987      7.44383     12.33878        -0.005670      0.020385      0.003783
Pd      9.22196      7.27100     10.12908         0.008836      0.011761     -0.031488
Pd      9.27442      7.61672     12.80097         0.007909     -0.010761     -0.016711
Pd     11.69977      7.29586     11.46474         0.006441      0.001092     -0.008934
Pd     11.39144      7.99721      8.85620         0.030075     -0.006137     -0.012972
Pd      7.26202     11.84086     11.95906         0.002438     -0.002793     -0.016056
Pd      8.92089     14.68275      9.34581         0.036641      0.007114      0.014361
Pd      8.41511     12.66264     14.32638        -0.008148     -0.009223     -0.002095
Pd     13.54939     14.09314      8.54733         0.087301      0.031593     -0.046569
Pd     11.00634     13.34553      8.53709         0.069464      0.033942      0.038832
Pd     14.08234     11.52299      8.92176         0.000150      0.024707     -0.006550
Pd      8.63170     14.10866     12.10443         0.008041     -0.003698      0.000707
Pd     12.24113     13.75077     14.02726        -0.004370     -0.001464      0.001586
Pd     11.17943     14.42312     11.16793         0.027892     -0.010275      0.046490
Pd     14.05489     13.56409     12.17031        -0.010145      0.013388     -0.004870
Pd     12.31315     12.12839     10.68699        -0.000728     -0.025316      0.007984
Pd     12.65814     12.33294      6.71202         0.017894      0.041517     -0.015045
Pd     13.65487      8.93660      7.91442         0.031909      0.009138     -0.000989
Pd      6.86388      8.47172      8.85868         0.010517      0.012300     -0.002544
Pd      5.52729      9.94533     11.25369         0.010304      0.028101     -0.048463
Pd      9.14391      9.74956      8.29820         0.027893     -0.022756     -0.008848
Pd      8.81883      7.23991      7.46914        -0.018194     -0.010682     -0.030491
Pd      9.53365     12.08587     10.43286         0.023246      0.003776      0.005352
Pd     11.53005     10.71248      8.56734         0.022068      0.012138     -0.029763
Pd     11.24211      9.24354      6.43208         0.034505     -0.022938     -0.011371
Pd      9.89823     11.55519      6.37399         0.023350     -0.020458      0.000410
Ir     11.35906      9.12121     13.35702        -0.004983      0.011819     -0.037045
Ir     13.07588      9.47753     10.38522         0.011233      0.010196     -0.014880
Ir     10.53700     12.35448     12.72167        -0.008132     -0.021733      0.008694
Ir      7.15586     10.99252      9.50374         0.029778     -0.020963      0.005301
Ir      8.42594     12.47020      8.19090         0.077020      0.040756     -0.028600
Ir      8.06861      9.31105     11.12361        -0.011741      0.013623     -0.011094
