152
# total energy = -1022.34153535 eVH     10.35389      5.87395      7.64558         0.413276     -0.082021      1.098472
H     10.62451     15.10445      7.64558         0.042506     -0.098873      0.597586
H     10.62451      5.87395     13.33282         0.130040      0.110163     -0.644793
H     10.35389     15.10445     13.33282        -0.257674     -0.064391     -0.557124
H      7.64558     10.35389      5.87395         0.419088     -0.050141      0.175760
H      7.64558     10.62451     15.10445         0.631706     -0.107964     -0.086940
H     13.33282     10.62451      5.87395        -1.040347     -0.459922     -0.099343
H     13.33282     10.35389     15.10445        -0.470087     -0.053538     -0.048339
H      5.87395      7.64558     10.35389         0.025269      1.265110     -0.103123
H     15.10445      7.64558     10.62451        -0.163570      0.391583     -0.075847
H      5.87395     13.33282     10.62451         0.145343     -0.385528     -0.065256
H     15.10445     13.33282     10.35389        -0.077601     -1.017968     -0.336065
H      5.87395     10.35389      7.64558         0.116114     -0.015506      0.391365
H     15.10445     10.62451      7.64558         0.070185     -0.061169      0.859499
H      5.87395     10.62451     13.33282         0.257970     -0.067828     -0.424897
H     15.10445     10.35389     13.33282        -0.192936      0.064665     -0.606755
H     10.35389      7.64558      5.87395         0.189382      0.962008      0.008306
H     10.62451      7.64558     15.10445        -0.025123      0.765997     -0.086509
H     10.62451     13.33282      5.87395         0.400169     -0.468205      0.207712
H     10.35389     13.33282     15.10445        -0.151639     -0.961035     -0.123088
H      7.64558      5.87395     10.35389         0.451440      0.076440     -0.144415
H      7.64558     15.10445     10.62451         0.906266     -0.203758      0.157173
H     13.33282      5.87395     10.62451        -0.430891      0.196685     -0.061411
H     13.33282     15.10445     10.35389        -1.012380     -0.057794      0.264122
H     12.45634     12.45634     19.01126         0.273816      0.258437     -0.217994
H     19.01126     19.01126     19.01126        -0.250982     -0.235984     -0.261268
H     19.01126     12.45634     12.45634        -0.243670      0.275120      0.233921
H     12.45634     19.01126     12.45634         0.205516     -0.285287      0.258633
C     10.35284      5.61067      6.59456        -0.044140     -0.506967     -0.846724
C     10.62556     15.36773      6.59456         0.034566      0.339224     -0.853672
C     10.62556      5.61067     14.38384        -0.012336     -0.288877      0.751829
C     10.35284     15.36773     14.38384         0.228889      0.678738      0.057172
C      6.59456     10.35284      5.61067        -0.675521     -0.030167     -0.274707
C      6.59456     10.62556     15.36773        -0.930350      0.113245      0.424885
C     14.38384     10.62556      5.61067         1.115829      0.280236     -0.293705
C     14.38384     10.35284     15.36773         0.752940     -0.108499      0.425832
C      5.61067      6.59456     10.35284        -0.361103     -0.923990      0.223778
C     15.36773      6.59456     10.62556         0.184769     -0.468813      0.040360
C      5.61067     14.38384     10.62556        -0.236569      0.381727     -0.006775
C     15.36773     14.38384     10.35284         0.310983      0.434767      0.260225
C      5.61067     10.35284      6.59456        -0.346757      0.018308     -0.792470
C     15.36773     10.62556      6.59456         0.539529     -0.165418     -1.242715
C      5.61067     10.62556     14.38384        -0.499555      0.013817      1.118319
C     15.36773     10.35284     14.38384         0.547876     -0.202426      1.376705
C     10.35284      6.59456      5.61067         0.008975     -1.204853     -0.734821
C     10.62556      6.59456     15.36773         0.069556     -0.995319      0.398616
C     10.62556     14.38384      5.61067        -0.059982      1.371238     -0.696363
C     10.35284     14.38384     15.36773         0.050279      0.685755      0.539161
C      6.59456      5.61067     10.35284         0.023591     -0.880008      0.138922
C      6.59456     15.36773     10.62556        -1.685174      0.485221      0.083519
C     14.38384      5.61067     10.62556         0.555628     -0.223397      0.010736
C     14.38384     15.36773     10.35284         0.566904      0.499205     -0.249457
C     10.40319      3.19606      7.29314         0.019436      0.990624     -0.230304
C     10.35913      4.25547      6.23373        -0.018193     -0.288126      0.807061
C      0.08601      7.29314      7.29314        -0.011252     -0.224738     -0.470123
C      0.13007      6.23373      6.23373        -0.015902      0.168656      0.166640
C      0.08601      3.19606      3.19606        -0.024273      0.707783      0.143625
C      0.13007      4.25547      4.25547        -0.110004     -0.199933     -0.145167
C     10.40319      7.29314      3.19606        -0.003984     -0.634475      0.468522
C     10.35913      6.23373      4.25547        -0.002608      0.586307     -0.302905
C      7.29314     10.40319      3.19606        -0.412979      0.018359      0.949780
C      6.23373     10.35913      4.25547         0.252939     -0.015971     -0.199034
C      7.29314      0.08601      7.29314        -0.302764     -0.054590     -0.256405
C      6.23373      0.13007      6.23373         0.325817     -0.104726      0.236805
C      3.19606      0.08601      3.19606         0.310382     -0.061308      1.386922
C      4.25547      0.13007      4.25547        -0.237377     -0.015336     -0.425998
C      3.19606     10.40319      7.29314         0.760579      0.019560     -0.251930
C      4.25547     10.35913      6.23373        -0.112430      0.037989      0.122051
C      3.19606      7.29314     10.40319         0.508130     -1.230563      0.041363
C      4.25547      6.23373     10.35913        -0.776101      0.682758      0.027076
C      7.29314      7.29314      0.08601        -0.656851     -0.214098     -0.020817
C      6.23373      6.23373      0.13007         0.181089      0.246420     -0.006873
C      3.19606      3.19606      0.08601         0.271473      0.265242     -0.016203
C      4.25547      4.25547      0.13007        -0.053450     -0.039029      0.005429
C      7.29314      3.19606     10.40319        -0.326513      0.693430      0.032844
C      6.23373      4.25547     10.35913         0.662288     -0.240846      0.030317
O     10.43466      3.58206      8.50569        -0.054012      0.027219      0.277770
O     10.54374     17.39634      8.50569        -0.024185     -0.199615      0.621642
O     10.54374      3.58206     12.47271         0.070275      0.046960     -0.284551
O     10.43466     17.39634     12.47271        -0.025543     -0.130023     -0.548253
O      8.50569     10.43466      3.58206         0.381448     -0.006307     -0.019009
O      8.50569     10.54374     17.39634         0.459174      0.058079     -0.140484
O     12.47271     10.54374      3.58206        -0.197244      0.070675     -0.126782
O     12.47271     10.43466     17.39634        -0.854531      0.027616     -0.208917
O      3.58206      8.50569     10.43466         0.034318      0.880626      0.040896
O     17.39634      8.50569     10.54374        -0.023522      0.369430      0.080076
O      3.58206     12.47271     10.54374         0.055002     -0.433496      0.059925
O     17.39634     12.47271     10.43466        -0.152746     -0.706630      0.006305
O      3.58206     10.43466      8.50569        -0.053122     -0.062437      0.222747
O     17.39634     10.54374      8.50569        -0.141022      0.048533      0.445359
O      3.58206     10.54374     12.47271        -0.075834     -0.058249     -0.883625
O     17.39634     10.43466     12.47271        -0.201036      0.049672     -0.796804
O     10.43466      8.50569      3.58206         0.021809      0.665630      0.202764
O     10.54374      8.50569     17.39634         0.057546      0.387887     -0.066505
O     10.54374     12.47271      3.58206        -0.055736     -0.734094      0.248399
O     10.43466     12.47271     17.39634         0.064616     -0.841054     -0.276515
O      8.50569      3.58206     10.43466         0.492018      0.093030     -0.040104
O      8.50569     17.39634     10.54374         0.664989     -0.227876     -0.059323
O     12.47271      3.58206     10.54374        -0.524977      0.158518      0.038037
O     12.47271     17.39634     10.43466        -0.460146     -0.023572     -0.048849
O     11.90042     11.90042     19.56718        -0.311438     -0.311022      0.255792
O     19.56718     19.56718     19.56718         0.292686      0.276089      0.319262
O     19.56718     11.90042     11.90042         0.278459     -0.332094     -0.229327
O     11.90042     19.56718     11.90042        -0.220440      0.295623     -0.243911
O      9.45224      1.03696      9.45224        -0.070682      0.059578     -0.069149
O      1.03696      9.45224      9.45224         0.067526     -0.143376     -0.054211
O      1.03696      1.03696      1.03696         0.042901      0.030132      0.190967
O      9.45224      9.45224      1.03696        -0.036880     -0.084453      0.135706
Zr     10.48920      2.52580     10.48920         0.001113     -0.064798     -0.023700
Zr     10.48920     18.45260     10.48920         0.032204      0.286503     -0.051518
Zr     10.48920     10.48920      2.52580        -0.049366     -0.039320     -0.362521
Zr     10.48920     10.48920     18.45260        -0.154551     -0.206654      0.303480
Zr      2.52580     10.48920     10.48920        -0.328938      0.356451     -0.491719
Zr     18.45260     10.48920     10.48920         0.219529      0.043370     -0.317478
Pd      9.01919     10.26535     13.52216         0.014286      0.004499     -0.037460
Pd     10.62513      9.72807     11.33654         0.012581      0.000577     -0.074916
Pd     13.76343      8.51326     12.84842         0.007075      0.023110     -0.037679
Pd     11.02244     11.15983     15.11461        -0.001964     -0.021726     -0.011450
Pd     12.80175     11.12206     13.03343         0.015172      0.025798      0.018248
Pd     15.01916     10.74905     11.39786         0.005819      0.045176     -0.006544
Pd      6.64217      7.39583     12.32140         0.037209      0.008980     -0.009282
Pd      9.35502      7.42000     10.25218        -0.048760     -0.051034      0.006715
Pd      9.21394      7.63253     12.93781         0.026327      0.010875     -0.013605
Pd     11.71583      7.26771     11.67538         0.007023      0.006958     -0.047221
Pd     11.63133      7.69478      8.97062        -0.095738      0.107439     -0.010508
Pd      7.19863     11.84590     12.09412         0.010861     -0.001083     -0.017664
Pd      8.97108     14.66523      9.33048        -0.036228     -0.024539      0.008242
Pd      8.47041     12.76039     14.33856        -0.020979     -0.013610      0.016751
Pd     13.13888     13.96441      8.69611         0.061296     -0.028765      0.020608
Pd     10.74651     13.00668      8.44473         0.007506      0.052876     -0.001079
Pd     14.11997     11.47597      9.04974        -0.101299     -0.089377     -0.008791
Pd      8.67934     14.08871     12.04015        -0.022634      0.007206      0.032645
Pd     12.22572     13.74012     13.95954         0.005133     -0.002751      0.011384
Pd     11.20780     14.32225     11.01459        -0.041888      0.047567      0.018363
Pd     14.02643     13.38013     12.10221         0.023236      0.031124      0.018947
Pd     12.22595     12.00007     10.64046        -0.007095      0.047483      0.036923
Pd     12.45268     11.84401      6.95152         0.025749      0.076003     -0.065344
Pd     13.58246      9.09531      7.90768         0.005035     -0.109728     -0.059956
Pd      6.98813      8.37626      8.98830        -0.020611      0.014721     -0.013078
Pd      5.50234      9.87140     11.35893         0.003009     -0.006429     -0.001064
Pd      8.82259      9.97104      7.94758         0.055612     -0.022885      0.077910
Pd      9.13334      7.44483      7.60935        -0.047983     -0.015921     -0.018841
Pd      9.37591     11.96623     10.45618         0.018442      0.021437     -0.013602
Pd     11.21814     10.34345      8.86745         0.100572      0.104059     -0.043009
Pd     11.08402      9.35943      6.48018        -0.009718      0.011566     -0.020379
Pd      9.67587     11.76583      6.22668         0.016295     -0.021054      0.008133
Ir     11.36394      9.05138     13.64412         0.002536      0.015447     -0.056896
Ir     13.04891      9.35715     10.48454         0.018925      0.021780     -0.041088
Ir     10.52314     12.31444     12.69162        -0.006922      0.018983      0.025072
Ir      7.03722     10.95793      9.61891        -0.026565      0.000650     -0.010039
Ir      8.15709     12.48883      8.21668         0.027343     -0.002901     -0.019978
Ir      8.07115      9.36136     11.23835         0.034210     -0.004497     -0.027052
