152
# total energy = -1061.33381563 eVH     10.35389      5.87395      7.64558        -0.174117      0.143223      1.007883
H     10.62451     15.10445      7.64558         0.217555     -0.073821      0.840917
H     10.62451      5.87395     13.33282        -0.162028      0.085471     -0.525558
H     10.35389     15.10445     13.33282         0.056225     -0.241532     -0.445915
H      7.64558     10.35389      5.87395         0.825271      0.089903      0.206829
H      7.64558     10.62451     15.10445         0.187555     -0.000487     -0.065710
H     13.33282     10.62451      5.87395        -0.643246     -0.036508      0.174181
H     13.33282     10.35389     15.10445        -0.337633     -0.092435     -0.047405
H      5.87395      7.64558     10.35389         0.133984      0.363521     -0.032096
H     15.10445      7.64558     10.62451        -0.133641      0.626235      0.274927
H      5.87395     13.33282     10.62451         0.134408     -0.552599      0.001539
H     15.10445     13.33282     10.35389        -0.237287     -0.464412      0.119247
H      5.87395     10.35389      7.64558         0.209344      0.192082      0.382339
H     15.10445     10.62451      7.64558        -0.177560     -0.136991      0.442845
H      5.87395     10.62451     13.33282         0.033970      0.132275     -0.730136
H     15.10445     10.35389     13.33282         0.101525     -0.306007     -0.752858
H     10.35389      7.64558      5.87395        -0.088173      0.440531      0.260244
H     10.62451      7.64558     15.10445         0.406367      0.709748     -0.104890
H     10.62451     13.33282      5.87395         0.260151     -0.588712      0.118530
H     10.35389     13.33282     15.10445         0.160537     -0.638530     -0.081293
H      7.64558      5.87395     10.35389         0.432752      0.154704     -0.044693
H      7.64558     15.10445     10.62451         0.454449     -0.168896      0.329936
H     13.33282      5.87395     10.62451        -0.358858      0.145819     -0.038408
H     13.33282     15.10445     10.35389        -0.549458     -0.243095      0.165354
H     12.45634     12.45634     19.01126         0.240899      0.264342     -0.239657
H     19.01126     19.01126     19.01126        -0.255001     -0.265198     -0.229077
H     19.01126     12.45634     12.45634        -0.231639      0.267454      0.242967
H     12.45634     19.01126     12.45634         0.288964     -0.211272      0.244841
C     10.35284      5.61067      6.59456         0.324258     -0.302741     -0.929139
C     10.62556     15.36773      6.59456        -0.141860      0.696115     -0.389030
C     10.62556      5.61067     14.38384         0.271990     -0.343297      0.535508
C     10.35284     15.36773     14.38384        -0.128130      0.278607      0.430058
C      6.59456     10.35284      5.61067        -0.768320     -0.153168     -0.215382
C      6.59456     10.62556     15.36773        -0.550080      0.065064      0.345148
C     14.38384     10.62556      5.61067         0.976272      0.002122     -0.517994
C     14.38384     10.35284     15.36773         0.283042     -0.089756      0.380850
C      5.61067      6.59456     10.35284        -0.375575     -0.482961      0.032386
C     15.36773      6.59456     10.62556         0.252551     -0.711466     -0.165983
C      5.61067     14.38384     10.62556        -0.188937      0.605663     -0.237454
C     15.36773     14.38384     10.35284         0.375621      0.837184     -0.130502
C      5.61067     10.35284      6.59456        -0.246439     -0.130225     -0.233593
C     15.36773     10.62556      6.59456         0.211722      0.136317     -0.380496
C      5.61067     10.62556     14.38384        -0.369121     -0.022229      1.237203
C     15.36773     10.35284     14.38384         0.258767     -0.019629      1.012933
C     10.35284      6.59456      5.61067         0.031715     -0.336707     -0.453756
C     10.62556      6.59456     15.36773        -0.039777     -0.871694      0.279518
C     10.62556     14.38384      5.61067        -0.385416     -0.012920     -0.798607
C     10.35284     14.38384     15.36773        -0.226713      0.893958      0.244780
C      6.59456      5.61067     10.35284        -0.422853     -0.300662      0.160778
C      6.59456     15.36773     10.62556        -0.534315      0.524122      0.031770
C     14.38384      5.61067     10.62556         0.396783     -0.313426      0.075606
C     14.38384     15.36773     10.35284         0.819383      0.298746     -0.066819
C     10.40319      3.19606      7.29314        -0.001400      0.646997     -0.330365
C     10.35913      4.25547      6.23373         0.003698     -0.468157      0.401995
C      0.08601      7.29314      7.29314        -0.026359     -0.787274     -0.464900
C      0.13007      6.23373      6.23373        -0.150062      0.858507      0.121230
C      0.08601      3.19606      3.19606        -0.013013      0.372071      0.384274
C      0.13007      4.25547      4.25547         0.072038     -0.161137     -0.654596
C     10.40319      7.29314      3.19606        -0.046498     -1.097652      0.905356
C     10.35913      6.23373      4.25547         0.015635      0.333416     -0.173980
C      7.29314     10.40319      3.19606        -1.034128     -0.067402      0.361866
C      6.23373     10.35913      4.25547         0.289145      0.033145     -0.608008
C      7.29314      0.08601      7.29314        -0.955754     -0.002023     -0.392919
C      6.23373      0.13007      6.23373         0.180442      0.012991      0.109608
C      3.19606      0.08601      3.19606         0.335435     -0.004227      0.364271
C      4.25547      0.13007      4.25547        -0.272059     -0.045027     -0.162420
C      3.19606     10.40319      7.29314         0.485050     -0.047402     -1.095190
C      4.25547     10.35913      6.23373        -0.305941     -0.045902      0.139447
C      3.19606      7.29314     10.40319         0.810366     -0.508832      0.013301
C      4.25547      6.23373     10.35913        -0.121577      0.162656     -0.001380
C      7.29314      7.29314      0.08601        -0.406010     -0.269074     -0.005959
C      6.23373      6.23373      0.13007         0.253025      0.067671     -0.142112
C      3.19606      3.19606      0.08601         0.334332      0.679517     -0.008299
C      4.25547      4.25547      0.13007        -0.351416     -0.235696      0.054652
C      7.29314      3.19606     10.40319        -0.217422      0.555248      0.020412
C      6.23373      4.25547     10.35913         0.067130     -0.248055      0.001477
O     10.43466      3.58206      8.50569        -0.017086      0.110254      0.336016
O     10.54374     17.39634      8.50569         0.064811      0.023601      0.332080
O     10.54374      3.58206     12.47271         0.043290      0.197839     -0.575311
O     10.43466     17.39634     12.47271         0.033981     -0.005232     -0.475753
O      8.50569     10.43466      3.58206         0.716253     -0.075151      0.078643
O      8.50569     10.54374     17.39634         0.920777      0.035967     -0.162898
O     12.47271     10.54374      3.58206        -0.354220      0.045633      0.065212
O     12.47271     10.43466     17.39634        -0.337223     -0.020719      0.067412
O      3.58206      8.50569     10.43466        -0.018325      0.409483     -0.083791
O     17.39634      8.50569     10.54374        -0.120414      0.427391      0.032143
O      3.58206     12.47271     10.54374         0.128556     -0.694451     -0.010310
O     17.39634     12.47271     10.43466        -0.245029     -0.661869     -0.011403
O      3.58206     10.43466      8.50569         0.139999     -0.043531      0.841346
O     17.39634     10.54374      8.50569         0.041780      0.043912      0.279546
O      3.58206     10.54374     12.47271         0.070371      0.019939     -0.441271
O     17.39634     10.43466     12.47271        -0.023922      0.015241     -0.321699
O     10.43466      8.50569      3.58206        -0.070157      0.572162     -0.089579
O     10.54374      8.50569     17.39634         0.024421      0.825479     -0.172697
O     10.54374     12.47271      3.58206         0.056245     -0.374675      0.089865
O     10.43466     12.47271     17.39634        -0.063441     -0.684979     -0.219733
O      8.50569      3.58206     10.43466         0.350335      0.066799     -0.053781
O      8.50569     17.39634     10.54374         0.505095     -0.131645      0.018983
O     12.47271      3.58206     10.54374        -0.406419      0.099087      0.021794
O     12.47271     17.39634     10.43466        -0.657172     -0.089718      0.061605
O     11.90042     11.90042     19.56718        -0.249025     -0.277615      0.223957
O     19.56718     19.56718     19.56718         0.288794      0.303269      0.251103
O     19.56718     11.90042     11.90042         0.237774     -0.299504     -0.290145
O     11.90042     19.56718     11.90042        -0.288243      0.178503     -0.253325
O      9.45224      1.03696      9.45224        -0.119028      0.117868     -0.082219
O      1.03696      9.45224      9.45224         0.150590     -0.131366     -0.151949
O      1.03696      1.03696      1.03696         0.138613      0.191200     -0.011803
O      9.45224      9.45224      1.03696        -0.200854     -0.170155      0.050982
Zr     10.48920      2.52580     10.48920         0.006571     -0.244243      0.199881
Zr     10.48920     18.45260     10.48920        -0.229208      0.247414     -0.283442
Zr     10.48920     10.48920      2.52580         0.256858      0.470510     -0.207696
Zr     10.48920     10.48920     18.45260         0.034914     -0.084254      0.482564
Zr      2.52580     10.48920     10.48920        -0.535471      0.062541      0.370952
Zr     18.45260     10.48920     10.48920         0.257764     -0.151938      0.029039
Pd      9.08465     14.46373      9.20285         0.015891      0.080816      0.027970
Pd      8.34339     13.24709     13.73531        -0.011675      0.019580      0.057468
Pd     11.95067     14.27455      8.80576        -0.059220     -0.095306      0.020530
Pd     12.27665     12.75950     10.91818         0.036283      0.056253     -0.013105
Pd     11.86957      7.10283     12.10358        -0.009486      0.061871     -0.019730
Pd     10.96278     15.28391     11.08958         0.048558      0.003250     -0.052622
Pd      9.60762     13.02817     11.40668        -0.022824      0.128751     -0.081945
Pd     13.92674     12.57697      8.28008         0.057000     -0.050370     -0.099280
Pd     11.71174     11.72750      6.80546        -0.006519     -0.042060      0.017234
Pd      7.53337      8.48662      7.29592        -0.003476     -0.010028     -0.004697
Pd      8.78740     11.95096      6.87103        -0.104820      0.077080      0.034378
Pd      9.83118      9.79813      8.06020         0.001778     -0.007632      0.018142
Pd      8.50193     14.60965      6.55453        -0.039893     -0.048750     -0.020056
Pd     12.17159      9.00565      6.96753         0.000548      0.028096     -0.063268
Pd     10.08591      9.95286      5.44616        -0.001952     -0.022711     -0.064748
Pd      6.92697      9.15320     12.24074        -0.029941      0.043062      0.009489
Pd     12.40036      6.48566      7.86266        -0.044337      0.007207     -0.038283
Pd      5.63317     10.55329     10.01308        -0.051629      0.031544      0.023747
Pd      7.67683      6.65994     12.95328        -0.039597     -0.022469     -0.051236
Ir     11.31006      9.59422     12.98303        -0.030963     -0.083965     -0.096106
Ir     13.09973      9.26053     11.24677         0.051142     -0.162459     -0.002119
Ir      9.17219      8.50873     13.89611         0.016232     -0.054186      0.065028
Ir     10.24955     10.49730     15.15684        -0.043775     -0.034045      0.043198
Ir      7.07666     11.81781     11.79051        -0.065157      0.050212     -0.036003
Ir     14.49395     11.12592     10.44345         0.078855      0.027533      0.002592
Ir     12.36379     10.58466      9.16479        -0.049640     -0.015735     -0.073101
Ir      8.91873     10.82268     12.93079         0.057030     -0.083113      0.125251
Ir     10.05444     10.24843     10.70642        -0.005573      0.000372     -0.032826
Ir     13.32103     11.28338     12.71143        -0.010766      0.049901     -0.052410
Ir     11.09780     12.08564     13.38119         0.032319      0.037606      0.009664
Ir      8.01630     11.63167      9.48743        -0.106457      0.025089      0.016018
Ir     11.34907      8.13609      9.63032         0.040847     -0.028488     -0.057372
Ir      6.94717     13.32595      8.18743        -0.000212      0.047186     -0.006497
Ir      9.16990      7.22991      8.93328        -0.021849     -0.046817     -0.020527
Ir      7.82806      9.12689      9.80876        -0.003480      0.018964     -0.072688
Ir     10.42327     12.24606      8.98226         0.142986      0.100286      0.050692
Ir      9.38440      7.86181     11.41420         0.059356      0.015631     -0.080210
Ir     13.80487      8.42361      8.95880         0.027320     -0.001393      0.022682
