152
# total energy = -1023.49425138 eVH     10.35389      5.87395      7.64558         0.485505      0.080788      0.747641
H     10.62451     15.10445      7.64558        -0.027706     -0.139354      0.639031
H     10.62451      5.87395     13.33282         0.137523      0.157092     -0.629109
H     10.35389     15.10445     13.33282        -0.323343     -0.052065     -0.734586
H      7.64558     10.35389      5.87395         0.303841     -0.018450      0.183450
H      7.64558     10.62451     15.10445         0.987762     -0.392126      0.011444
H     13.33282     10.62451      5.87395        -0.746279     -0.005672      0.182821
H     13.33282     10.35389     15.10445        -0.660859     -0.210872      0.010526
H      5.87395      7.64558     10.35389         0.205525      0.840740     -0.114953
H     15.10445      7.64558     10.62451        -0.151455      0.404050     -0.057046
H      5.87395     13.33282     10.62451         0.180413     -0.474359     -0.069865
H     15.10445     13.33282     10.35389        -0.119405     -0.920881      0.098564
H      5.87395     10.35389      7.64558         0.144066      0.103336      0.438769
H     15.10445     10.62451      7.64558         0.099019      0.064737      1.157729
H      5.87395     10.62451     13.33282         0.119287     -0.037734     -0.376811
H     15.10445     10.35389     13.33282        -0.114690     -0.087953     -0.590470
H     10.35389      7.64558      5.87395        -0.057836      0.849654      0.222094
H     10.62451      7.64558     15.10445         0.011806      0.316151     -0.179423
H     10.62451     13.33282      5.87395        -0.033803     -0.556252      0.220846
H     10.35389     13.33282     15.10445        -0.652348     -0.865193     -0.037462
H      7.64558      5.87395     10.35389         0.465677      0.110460      0.038451
H      7.64558     15.10445     10.62451         0.788384     -0.284134      0.048966
H     13.33282      5.87395     10.62451        -0.453253      0.174301     -0.055726
H     13.33282     15.10445     10.35389        -0.620697     -0.081230      0.200851
H     12.45634     12.45634     19.01126         0.245017      0.279392     -0.226556
H     19.01126     19.01126     19.01126        -0.253128     -0.238362     -0.253472
H     19.01126     12.45634     12.45634        -0.245288      0.273965      0.228866
H     12.45634     19.01126     12.45634         0.228203     -0.262123      0.244550
C     10.35284      5.61067      6.59456        -0.216672     -0.500225      0.018784
C     10.62556     15.36773      6.59456         0.042041      0.412753     -0.880286
C     10.62556      5.61067     14.38384        -0.057962     -0.131101      0.753071
C     10.35284     15.36773     14.38384         0.053383      0.805937      0.325594
C      6.59456     10.35284      5.61067        -0.379417     -0.034269     -0.230059
C      6.59456     10.62556     15.36773        -1.111298      0.425172      0.428885
C     14.38384     10.62556      5.61067         0.372651      0.274694     -0.582103
C     14.38384     10.35284     15.36773         0.845295     -0.084055      0.389452
C      5.61067      6.59456     10.35284        -0.343984     -0.552982      0.377121
C     15.36773      6.59456     10.62556         0.167167     -0.508282      0.036784
C      5.61067     14.38384     10.62556        -0.108512      0.464658     -0.002383
C     15.36773     14.38384     10.35284         0.288489     -0.153161     -0.199005
C      5.61067     10.35284      6.59456        -0.268930     -0.029659     -0.788790
C     15.36773     10.62556      6.59456         0.675035     -0.328432     -1.318573
C      5.61067     10.62556     14.38384        -0.534473     -0.021283      0.186491
C     15.36773     10.35284     14.38384         0.643026     -0.124997      1.329697
C     10.35284      6.59456      5.61067        -0.249796     -0.561201     -0.694621
C     10.62556      6.59456     15.36773         0.038027     -0.325966      0.165003
C     10.62556     14.38384      5.61067         0.142017      1.086020     -0.430361
C     10.35284     14.38384     15.36773         0.078892      0.364620      0.783761
C      6.59456      5.61067     10.35284        -0.289483     -0.810720      0.068315
C      6.59456     15.36773     10.62556        -1.297806      0.338090      0.059632
C     14.38384      5.61067     10.62556         0.652627     -0.233694      0.015062
C     14.38384     15.36773     10.35284        -0.461081      0.644055     -0.366990
C     10.40319      3.19606      7.29314         0.018851      0.915405     -0.374971
C     10.35913      4.25547      6.23373         0.028600     -0.453823      0.615040
C      0.08601      7.29314      7.29314        -0.002953     -0.419002     -0.414565
C      0.13007      6.23373      6.23373        -0.000227      0.049790      0.120996
C      0.08601      3.19606      3.19606        -0.015473      0.782664      0.176967
C      0.13007      4.25547      4.25547        -0.074631     -0.179411     -0.240030
C     10.40319      7.29314      3.19606         0.008043     -0.883654      0.505919
C     10.35913      6.23373      4.25547         0.031603      0.461570     -0.624331
C      7.29314     10.40319      3.19606        -0.377583      0.037111      0.888413
C      6.23373     10.35913      4.25547         0.222037      0.066360     -0.108396
C      7.29314      0.08601      7.29314        -0.414478     -0.030361     -0.284346
C      6.23373      0.13007      6.23373         0.453225     -0.057181      0.480460
C      3.19606      0.08601      3.19606         0.683467     -0.021721      0.438648
C      4.25547      0.13007      4.25547        -0.096905     -0.053256     -0.424748
C      3.19606     10.40319      7.29314         0.763711     -0.006401     -0.629229
C      4.25547     10.35913      6.23373        -0.209344      0.073497      0.170767
C      3.19606      7.29314     10.40319         0.525064     -1.289730     -0.032700
C      4.25547      6.23373     10.35913        -0.506700      0.826134      0.051972
C      7.29314      7.29314      0.08601        -0.551903     -0.234984     -0.016193
C      6.23373      6.23373      0.13007         0.176161      0.141395     -0.010261
C      3.19606      3.19606      0.08601         0.242683      0.315985     -0.024512
C      4.25547      4.25547      0.13007        -0.065802     -0.043702      0.008799
C      7.29314      3.19606     10.40319        -0.356631      0.715889      0.007808
C      6.23373      4.25547     10.35913         1.058813      0.050080      0.002576
O     10.43466      3.58206      8.50569        -0.042148      0.028960      0.405289
O     10.54374     17.39634      8.50569        -0.021789     -0.116365      0.496179
O     10.54374      3.58206     12.47271         0.048724      0.020722     -0.253409
O     10.43466     17.39634     12.47271        -0.041067     -0.086460     -0.558975
O      8.50569     10.43466      3.58206         0.359767     -0.024583     -0.025440
O      8.50569     10.54374     17.39634         0.519318      0.033756     -0.150840
O     12.47271     10.54374      3.58206        -0.627371     -0.020678      0.164510
O     12.47271     10.43466     17.39634        -0.715320     -0.019600     -0.105479
O      3.58206      8.50569     10.43466         0.166798      1.107612      0.004737
O     17.39634      8.50569     10.54374        -0.042511      0.368149      0.071174
O      3.58206     12.47271     10.54374         0.083904     -0.500225      0.033522
O     17.39634     12.47271     10.43466        -0.164826     -0.712136      0.012565
O      3.58206     10.43466      8.50569        -0.033519     -0.067040      0.491513
O     17.39634     10.54374      8.50569        -0.119643      0.043808      0.418055
O      3.58206     10.54374     12.47271         0.052487      0.006836     -0.448560
O     17.39634     10.43466     12.47271        -0.225119      0.040887     -0.753049
O     10.43466      8.50569      3.58206         0.075116      0.797822      0.197493
O     10.54374      8.50569     17.39634         0.072935      0.576057     -0.110268
O     10.54374     12.47271      3.58206        -0.022103     -0.818310      0.234155
O     10.43466     12.47271     17.39634         0.018708     -0.967575     -0.224845
O      8.50569      3.58206     10.43466         0.516519      0.091985     -0.022510
O      8.50569     17.39634     10.54374         0.627705     -0.233111     -0.028702
O     12.47271      3.58206     10.54374        -0.446385      0.134214      0.048571
O     12.47271     17.39634     10.43466        -0.434634      0.023503     -0.015411
O     11.90042     11.90042     19.56718        -0.267180     -0.330265      0.246624
O     19.56718     19.56718     19.56718         0.287690      0.272799      0.302693
O     19.56718     11.90042     11.90042         0.273473     -0.327284     -0.219194
O     11.90042     19.56718     11.90042        -0.271847      0.286027     -0.263955
O      9.45224      1.03696      9.45224        -0.084060      0.050230     -0.057265
O      1.03696      9.45224      9.45224         0.064155     -0.159237     -0.088282
O      1.03696      1.03696      1.03696         0.019365      0.057196      0.182848
O      9.45224      9.45224      1.03696        -0.053029     -0.083676      0.133206
Zr     10.48920      2.52580     10.48920        -0.032381     -0.074919     -0.094544
Zr     10.48920     18.45260     10.48920         0.084676      0.271616     -0.001109
Zr     10.48920     10.48920      2.52580         0.005198     -0.061276     -0.482778
Zr     10.48920     10.48920     18.45260        -0.233053     -0.011487      0.445698
Zr      2.52580     10.48920     10.48920        -0.403943      0.268528      0.087867
Zr     18.45260     10.48920     10.48920         0.214709      0.065790     -0.300476
Pd      8.70685      9.96339     13.40588         0.044982     -0.360158     -0.278465
Pd     10.53714      9.52745     10.39053         0.081189      0.596825      0.348719
Pd     13.59062      8.69937     12.56458        -0.260175     -0.066768     -0.119187
Pd     10.84305     10.71028     15.16534        -0.039267      0.047254     -0.469470
Pd     12.96539     11.29253     13.25616        -0.172680     -0.306773      0.206409
Pd     14.99164     10.73262     11.35452        -0.057101      0.243039     -0.355502
Pd      6.58420      7.86765     12.44663         0.248551      0.070185      0.064249
Pd      9.28347      7.20975      9.70262         0.037350     -0.015837      0.001236
Pd      9.29755      7.46625     12.44425         0.045535     -0.028704      0.177209
Pd     11.68368      7.34623     11.22476         0.233080     -0.474743      0.139022
Pd     11.73985      7.82481      8.55800        -0.155514     -0.181545      0.093577
Pd      7.33509     11.74499     11.68193        -0.101695     -0.087112     -0.158110
Pd      9.29780     14.57199      9.54198        -0.221995      0.168610     -0.013805
Pd      8.08775     12.41620     14.26765         0.067294      0.150466      0.009556
Pd     14.16155     14.23080      8.30416        -0.068041     -0.140018      0.110607
Pd     11.61183     13.53645      8.84313         0.065476     -0.155373     -0.055758
Pd     14.16548     11.63003      8.91755        -0.269866      0.048543      0.054821
Pd      8.77249     13.95358     12.23733        -0.132111     -0.081527     -0.151201
Pd     12.13757     13.71737     14.16750         0.287807     -0.189534     -0.390852
Pd     11.37686     14.19948     11.50809         0.022383     -0.200006     -0.111504
Pd     13.95294     13.48059     12.21115         0.345646      0.355723     -0.081767
Pd     12.35802     11.84002     10.77317         0.117251     -0.423262      0.405146
Pd     12.74296     12.58068      6.68121         0.102418     -0.004541     -0.027086
Pd     13.99106      8.92688      7.71769        -0.067789     -0.002072      0.073491
Pd      6.99130      8.44968      8.67764         0.034867     -0.089922     -0.220852
Pd      5.65854     10.07599     10.34957        -0.027649      0.097011      0.101883
Pd      9.40924      9.32481      7.75963        -0.009680      0.077052      0.094678
Pd      8.47375      6.92210      7.13656         0.041517     -0.220168     -0.214813
Pd      9.74272     12.02449     10.48676        -0.006063     -0.016263     -0.075620
Pd     11.65855     10.66914      8.26099         0.225341      0.420709     -0.014578
Pd     11.69884      8.97916      6.15109        -0.014520      0.227202     -0.055664
Pd     10.22024     11.29055      6.13101         0.073996     -0.128328     -0.576085
Ir     11.14043      9.38228     12.89959        -0.285322      0.771251     -0.223010
Ir     13.15970      9.41510     10.09470         0.149337      0.049761      0.155298
Ir     10.42374     12.02784     12.91605         0.436015     -0.440776     -0.123508
Ir      7.79058     10.94243      9.10824        -0.144034     -0.215066      0.241278
Ir      9.16600     12.48291      8.00845         0.264789      0.147067      0.749411
Ir      8.13145      9.26292     10.97001        -0.261444      0.218996     -0.159049
