152
# total energy = -1022.83817935 eVH     10.35389      5.87395      7.64558         0.480062      0.029072      0.907726
H     10.62451     15.10445      7.64558        -0.042349      0.051021      0.771207
H     10.62451      5.87395     13.33282         0.143345      0.115145     -0.604143
H     10.35389     15.10445     13.33282        -0.258228     -0.079145     -0.559208
H      7.64558     10.35389      5.87395         0.331017     -0.036804      0.190087
H      7.64558     10.62451     15.10445         0.615389     -0.189924     -0.145146
H     13.33282     10.62451      5.87395        -0.860026     -0.324621      0.165921
H     13.33282     10.35389     15.10445        -0.449042     -0.077330     -0.070156
H      5.87395      7.64558     10.35389         0.126294      1.126881     -0.152717
H     15.10445      7.64558     10.62451        -0.170630      0.402392     -0.086963
H      5.87395     13.33282     10.62451         0.142571     -0.405133     -0.072012
H     15.10445     13.33282     10.35389        -0.078385     -0.968368     -0.193007
H      5.87395     10.35389      7.64558         0.126125      0.036755      0.478797
H     15.10445     10.62451      7.64558         0.126453     -0.214305      0.808306
H      5.87395     10.62451     13.33282         0.271899     -0.025526     -0.392799
H     15.10445     10.35389     13.33282        -0.155901      0.017382     -0.611347
H     10.35389      7.64558      5.87395         0.066378      0.846829      0.115300
H     10.62451      7.64558     15.10445         0.021761      0.575120     -0.141534
H     10.62451     13.33282      5.87395         0.068824     -0.601049      0.175568
H     10.35389     13.33282     15.10445        -0.251130     -0.892210     -0.110080
H      7.64558      5.87395     10.35389         0.526273      0.040104     -0.135967
H      7.64558     15.10445     10.62451         0.920141     -0.202147      0.303812
H     13.33282      5.87395     10.62451        -0.436544      0.187509     -0.058901
H     13.33282     15.10445     10.35389        -1.013870     -0.097074      0.276033
H     12.45634     12.45634     19.01126         0.266833      0.257108     -0.224718
H     19.01126     19.01126     19.01126        -0.247662     -0.235336     -0.262061
H     19.01126     12.45634     12.45634        -0.241171      0.270220      0.239528
H     12.45634     19.01126     12.45634         0.210505     -0.283309      0.253033
C     10.35284      5.61067      6.59456        -0.126995     -0.434554     -0.411245
C     10.62556     15.36773      6.59456         0.019642      0.348602     -1.154923
C     10.62556      5.61067     14.38384        -0.028955     -0.225195      0.724760
C     10.35284     15.36773     14.38384         0.181244      0.769991      0.149131
C      6.59456     10.35284      5.61067        -0.412469     -0.040890     -0.181295
C      6.59456     10.62556     15.36773        -0.778771      0.151237      0.347964
C     14.38384     10.62556      5.61067         0.626984      0.287721     -0.363081
C     14.38384     10.35284     15.36773         0.720408     -0.119099      0.420635
C      5.61067      6.59456     10.35284        -0.429068     -0.757774      0.276538
C     15.36773      6.59456     10.62556         0.198959     -0.465761      0.047996
C      5.61067     14.38384     10.62556        -0.260081      0.374691     -0.022726
C     15.36773     14.38384     10.35284         0.396039      0.154452      0.204640
C      5.61067     10.35284      6.59456        -0.311829     -0.013980     -0.892670
C     15.36773     10.62556      6.59456         0.575509     -0.157566     -1.234782
C      5.61067     10.62556     14.38384        -0.462867      0.008615      0.911126
C     15.36773     10.35284     14.38384         0.518867     -0.176060      1.244948
C     10.35284      6.59456      5.61067        -0.035861     -0.918552     -0.674309
C     10.62556      6.59456     15.36773         0.047676     -0.691319      0.299536
C     10.62556     14.38384      5.61067         0.041940      1.252281     -0.699330
C     10.35284     14.38384     15.36773         0.104967      0.608806      0.652871
C      6.59456      5.61067     10.35284        -0.219203     -0.901319      0.133043
C      6.59456     15.36773     10.62556        -1.734444      0.496203      0.039748
C     14.38384      5.61067     10.62556         0.581578     -0.227338     -0.008313
C     14.38384     15.36773     10.35284         0.187136      0.554183     -0.234468
C     10.40319      3.19606      7.29314         0.015015      0.901384     -0.250401
C     10.35913      4.25547      6.23373        -0.051491     -0.367702      0.610705
C      0.08601      7.29314      7.29314        -0.008765     -0.236481     -0.465896
C      0.13007      6.23373      6.23373         0.002256      0.123981      0.210649
C      0.08601      3.19606      3.19606        -0.016824      0.635939      0.181483
C      0.13007      4.25547      4.25547        -0.091377     -0.199408     -0.166621
C     10.40319      7.29314      3.19606        -0.002518     -0.686527      0.529439
C     10.35913      6.23373      4.25547        -0.007967      0.510077     -0.395439
C      7.29314     10.40319      3.19606        -0.340305      0.022628      0.858789
C      6.23373     10.35913      4.25547         0.208301      0.011091     -0.143414
C      7.29314      0.08601      7.29314        -0.307386     -0.046516     -0.271102
C      6.23373      0.13007      6.23373         0.267639     -0.058186      0.291739
C      3.19606      0.08601      3.19606         0.427387     -0.051977      1.309443
C      4.25547      0.13007      4.25547        -0.117327     -0.027288     -0.462317
C      3.19606     10.40319      7.29314         0.699581      0.014824     -0.264896
C      4.25547     10.35913      6.23373        -0.132778      0.029276      0.102446
C      3.19606      7.29314     10.40319         0.606903     -1.269067      0.026168
C      4.25547      6.23373     10.35913        -0.728850      0.831715      0.043890
C      7.29314      7.29314      0.08601        -0.652644     -0.169644     -0.022570
C      6.23373      6.23373      0.13007         0.169849      0.273756     -0.009187
C      3.19606      3.19606      0.08601         0.240554      0.250505     -0.019694
C      4.25547      4.25547      0.13007        -0.054001     -0.037069      0.013139
C      7.29314      3.19606     10.40319        -0.372716      0.792444      0.016390
C      6.23373      4.25547     10.35913         0.874096     -0.163147      0.009899
O     10.43466      3.58206      8.50569        -0.049422      0.034137      0.320396
O     10.54374     17.39634      8.50569        -0.023546     -0.182322      0.600797
O     10.54374      3.58206     12.47271         0.054971      0.064457     -0.325871
O     10.43466     17.39634     12.47271        -0.023156     -0.126509     -0.583532
O      8.50569     10.43466      3.58206         0.381493     -0.024896     -0.013325
O      8.50569     10.54374     17.39634         0.469754      0.053454     -0.143423
O     12.47271     10.54374      3.58206        -0.277455      0.050428     -0.079160
O     12.47271     10.43466     17.39634        -0.849957      0.020245     -0.223245
O      3.58206      8.50569     10.43466         0.040313      0.918162      0.041233
O     17.39634      8.50569     10.54374        -0.040728      0.339483      0.077998
O      3.58206     12.47271     10.54374         0.065202     -0.421124      0.064098
O     17.39634     12.47271     10.43466        -0.170211     -0.777183      0.018960
O      3.58206     10.43466      8.50569        -0.054517     -0.065678      0.230085
O     17.39634     10.54374      8.50569        -0.136893      0.042652      0.458837
O      3.58206     10.54374     12.47271        -0.020756     -0.052367     -0.894421
O     17.39634     10.43466     12.47271        -0.198076      0.043162     -0.766821
O     10.43466      8.50569      3.58206         0.043240      0.677698      0.190284
O     10.54374      8.50569     17.39634         0.053021      0.432362     -0.080792
O     10.54374     12.47271      3.58206        -0.006985     -0.723748      0.226122
O     10.43466     12.47271     17.39634         0.046944     -0.846071     -0.273841
O      8.50569      3.58206     10.43466         0.492474      0.075984     -0.038671
O      8.50569     17.39634     10.54374         0.650959     -0.250390     -0.059842
O     12.47271      3.58206     10.54374        -0.485684      0.163646      0.039928
O     12.47271     17.39634     10.43466        -0.531929     -0.038297     -0.030147
O     11.90042     11.90042     19.56718        -0.304690     -0.312533      0.265098
O     19.56718     19.56718     19.56718         0.286871      0.272062      0.320829
O     19.56718     11.90042     11.90042         0.279626     -0.330822     -0.245234
O     11.90042     19.56718     11.90042        -0.227540      0.290805     -0.240603
O      9.45224      1.03696      9.45224        -0.074649      0.047610     -0.066741
O      1.03696      9.45224      9.45224         0.056576     -0.143527     -0.056121
O      1.03696      1.03696      1.03696         0.045295      0.031396      0.186247
O      9.45224      9.45224      1.03696        -0.040263     -0.091827      0.121985
Zr     10.48920      2.52580     10.48920        -0.007992     -0.072502     -0.022597
Zr     10.48920     18.45260     10.48920         0.055178      0.304410     -0.074133
Zr     10.48920     10.48920      2.52580        -0.105067      0.016600     -0.367815
Zr     10.48920     10.48920     18.45260        -0.131693     -0.154744      0.324875
Zr      2.52580     10.48920     10.48920        -0.348743      0.318302     -0.471087
Zr     18.45260     10.48920     10.48920         0.243022      0.037253     -0.261628
Pd      9.04624     10.26349     13.32717        -0.014362     -0.018041      0.005403
Pd     10.58591      9.73040     10.99629        -0.007971     -0.013914     -0.047133
Pd     13.76333      8.53787     12.68883         0.007978      0.001092     -0.002699
Pd     11.00076     11.07772     15.01699         0.001303     -0.016200      0.000337
Pd     12.84335     11.17286     13.00707         0.022528      0.005166      0.005744
Pd     14.97875     10.93361     11.34647         0.017014      0.010700     -0.003920
Pd      6.64845      7.43166     12.34180         0.003063      0.019160      0.001807
Pd      9.22828      7.25934     10.12926         0.005035      0.010198     -0.030264
Pd      9.26148      7.60697     12.80242         0.011828     -0.010685     -0.019370
Pd     11.69576      7.28667     11.46795         0.008625      0.000604     -0.008417
Pd     11.39459      7.99644      8.86666         0.033582     -0.005443     -0.010385
Pd      7.26123     11.83471     11.95836         0.005462     -0.002898     -0.014458
Pd      8.89019     14.67130      9.32878         0.034483      0.011997      0.013717
Pd      8.41819     12.65679     14.32293        -0.006170     -0.010998     -0.004690
Pd     13.50712     14.08637      8.57601         0.069827      0.025502     -0.049161
Pd     10.96394     13.32952      8.50638         0.081588      0.038187      0.037317
Pd     14.09167     11.51568      8.92937         0.008513      0.030553     -0.003816
Pd      8.61597     14.11003     12.10340         0.011839     -0.009233     -0.002542
Pd     12.24365     13.72974     14.02391        -0.001780     -0.009179      0.008388
Pd     11.14497     14.44258     11.13856         0.028334     -0.018953      0.038367
Pd     14.06316     13.54513     12.17700        -0.011897      0.010543     -0.008862
Pd     12.31131     12.16608     10.66692        -0.006396     -0.025359      0.012369
Pd     12.66887     12.32291      6.72430         0.011366      0.035987     -0.018383
Pd     13.65417      8.93929      7.92400         0.033712      0.004550      0.011755
Pd      6.86087      8.46011      8.85318         0.010608      0.007794     -0.006866
Pd      5.52753      9.92819     11.27774         0.001795      0.028473     -0.048872
Pd      9.14274      9.74831      8.31748         0.024466     -0.014668     -0.013708
Pd      8.82177      7.23937      7.46960        -0.013860      0.001956     -0.031842
Pd      9.52161     12.08381     10.42269         0.015172      0.002572      0.003778
Pd     11.53271     10.70762      8.58247         0.025625      0.011498     -0.034126
Pd     11.23418      9.24153      6.44604         0.042471     -0.022772     -0.012551
Pd      9.90240     11.55964      6.39252         0.025756     -0.031093     -0.020063
Ir     11.35235      9.09346     13.37299        -0.004543      0.021034     -0.038551
Ir     13.07217      9.48028     10.39935         0.005792      0.011747     -0.009679
Ir     10.53187     12.36566     12.70571        -0.005965     -0.025645      0.002575
Ir      7.13212     10.97518      9.51228         0.056603      0.024443     -0.030251
Ir      8.38778     12.45413      8.18746         0.051582      0.004663     -0.007039
Ir      8.06561      9.29513     11.11786        -0.003963      0.011657     -0.005627
