152
# total energy = -1024.19714443 eVH     10.35389      5.87395      7.64558         0.520555      0.060486      0.763064
H     10.62451     15.10445      7.64558         0.022698     -0.180726      0.563495
H     10.62451      5.87395     13.33282         0.140904      0.157055     -0.642399
H     10.35389     15.10445     13.33282        -0.384737     -0.064792     -0.726705
H      7.64558     10.35389      5.87395         0.331862     -0.005367      0.185872
H      7.64558     10.62451     15.10445         0.854150     -0.320587     -0.025114
H     13.33282     10.62451      5.87395        -0.753233      0.006961      0.175851
H     13.33282     10.35389     15.10445        -0.889441     -0.405662      0.219268
H      5.87395      7.64558     10.35389         0.217378      0.617622     -0.011121
H     15.10445      7.64558     10.62451        -0.145831      0.405905     -0.048929
H      5.87395     13.33282     10.62451         0.168542     -0.502785     -0.093938
H     15.10445     13.33282     10.35389        -0.113992     -1.112397      0.015765
H      5.87395     10.35389      7.64558         0.136625      0.120376      0.468271
H     15.10445     10.62451      7.64558         0.056747      0.148186      1.095380
H      5.87395     10.62451     13.33282         0.116779     -0.021501     -0.407713
H     15.10445     10.35389     13.33282        -0.086898     -0.158463     -0.618733
H     10.35389      7.64558      5.87395         0.083544      0.885773      0.214516
H     10.62451      7.64558     15.10445         0.016664      0.288437     -0.180565
H     10.62451     13.33282      5.87395        -0.062827     -0.533939      0.296916
H     10.35389     13.33282     15.10445        -0.457436     -0.670952     -0.042957
H      7.64558      5.87395     10.35389         0.474825      0.117069      0.060948
H      7.64558     15.10445     10.62451         0.851394     -0.268373     -0.017783
H     13.33282      5.87395     10.62451        -0.536490      0.162771     -0.076009
H     13.33282     15.10445     10.35389        -0.616311     -0.065352      0.235819
H     12.45634     12.45634     19.01126         0.240277      0.277686     -0.232237
H     19.01126     19.01126     19.01126        -0.254873     -0.242736     -0.245723
H     19.01126     12.45634     12.45634        -0.257700      0.271789      0.221385
H     12.45634     19.01126     12.45634         0.226383     -0.261961      0.246593
C     10.35284      5.61067      6.59456        -0.184134     -0.595347      0.059111
C     10.62556     15.36773      6.59456        -0.006729      0.426174     -0.757784
C     10.62556      5.61067     14.38384        -0.036217     -0.097195      0.774457
C     10.35284     15.36773     14.38384         0.164342      0.699839      0.182946
C      6.59456     10.35284      5.61067        -0.390823     -0.029009     -0.265284
C      6.59456     10.62556     15.36773        -1.014480      0.329539      0.412798
C     14.38384     10.62556      5.61067         0.413501      0.297402     -0.603111
C     14.38384     10.35284     15.36773         1.016089     -0.019990      0.388600
C      5.61067      6.59456     10.35284        -0.377442     -0.511738      0.226438
C     15.36773      6.59456     10.62556         0.186099     -0.530186      0.030472
C      5.61067     14.38384     10.62556        -0.145852      0.529888      0.002977
C     15.36773     14.38384     10.35284         0.339101     -0.011019     -0.129583
C      5.61067     10.35284      6.59456        -0.302644     -0.051799     -0.871603
C     15.36773     10.62556      6.59456         0.708625     -0.315835     -1.137638
C      5.61067     10.62556     14.38384        -0.475016     -0.007128      0.270929
C     15.36773     10.35284     14.38384         0.667668     -0.125634      1.120295
C     10.35284      6.59456      5.61067        -0.267853     -0.484747     -0.786019
C     10.62556      6.59456     15.36773         0.050665     -0.298009      0.110748
C     10.62556     14.38384      5.61067         0.149705      1.175868     -0.413117
C     10.35284     14.38384     15.36773         0.212358      0.130783      0.664476
C      6.59456      5.61067     10.35284        -0.391952     -0.731163      0.062718
C      6.59456     15.36773     10.62556        -1.221833      0.284548      0.071448
C     14.38384      5.61067     10.62556         0.813703     -0.264067      0.022415
C     14.38384     15.36773     10.35284        -0.505535      0.734981     -0.369016
C     10.40319      3.19606      7.29314        -0.015012      0.860501     -0.397942
C     10.35913      4.25547      6.23373         0.028133     -0.478966      0.588757
C      0.08601      7.29314      7.29314        -0.012411     -0.499079     -0.388767
C      0.13007      6.23373      6.23373        -0.020278      0.021944      0.100073
C      0.08601      3.19606      3.19606        -0.015471      1.115676      0.187968
C      0.13007      4.25547      4.25547        -0.059457     -0.217011     -0.247994
C     10.40319      7.29314      3.19606        -0.002196     -0.932095      0.459444
C     10.35913      6.23373      4.25547         0.026388      0.477128     -0.618481
C      7.29314     10.40319      3.19606        -0.441109      0.044541      0.808155
C      6.23373     10.35913      4.25547         0.242130      0.090746     -0.115572
C      7.29314      0.08601      7.29314        -0.508490     -0.028793     -0.253651
C      6.23373      0.13007      6.23373         0.408388     -0.064431      0.412585
C      3.19606      0.08601      3.19606         0.759118     -0.019760      0.355495
C      4.25547      0.13007      4.25547        -0.107432     -0.061012     -0.434862
C      3.19606     10.40319      7.29314         0.571261     -0.002215     -0.733390
C      4.25547     10.35913      6.23373        -0.253734      0.110505      0.240343
C      3.19606      7.29314     10.40319         0.504144     -1.367532     -0.041604
C      4.25547      6.23373     10.35913        -0.386332      0.819777      0.035936
C      7.29314      7.29314      0.08601        -0.473326     -0.230996     -0.013312
C      6.23373      6.23373      0.13007         0.170424      0.142075     -0.010444
C      3.19606      3.19606      0.08601         0.247905      0.263714     -0.021690
C      4.25547      4.25547      0.13007        -0.086150     -0.044223      0.016339
C      7.29314      3.19606     10.40319        -0.359127      0.709188      0.012425
C      6.23373      4.25547     10.35913         1.103207      0.064275      0.003886
O     10.43466      3.58206      8.50569        -0.030722      0.045517      0.444955
O     10.54374     17.39634      8.50569        -0.014136     -0.090430      0.453743
O     10.54374      3.58206     12.47271         0.052861     -0.064264     -0.167096
O     10.43466     17.39634     12.47271        -0.045085     -0.070757     -0.531309
O      8.50569     10.43466      3.58206         0.374276     -0.020763     -0.028585
O      8.50569     10.54374     17.39634         0.611047      0.030406     -0.159476
O     12.47271     10.54374      3.58206        -0.676033     -0.027189      0.158234
O     12.47271     10.43466     17.39634        -0.520176     -0.027708     -0.057010
O      3.58206      8.50569     10.43466         0.157445      1.122863     -0.001376
O     17.39634      8.50569     10.54374        -0.066439      0.394030      0.068843
O      3.58206     12.47271     10.54374         0.073931     -0.431909      0.037497
O     17.39634     12.47271     10.43466        -0.155531     -0.716121      0.011794
O      3.58206     10.43466      8.50569         0.010272     -0.073328      0.604566
O     17.39634     10.54374      8.50569        -0.088870      0.042537      0.355699
O      3.58206     10.54374     12.47271         0.022781      0.020161     -0.342881
O     17.39634     10.43466     12.47271        -0.213691      0.020486     -0.716642
O     10.43466      8.50569      3.58206         0.088443      0.815605      0.191528
O     10.54374      8.50569     17.39634         0.052424      0.666735     -0.150573
O     10.54374     12.47271      3.58206        -0.047976     -0.992236      0.239441
O     10.43466     12.47271     17.39634        -0.015753     -0.924056     -0.204166
O      8.50569      3.58206     10.43466         0.514024      0.092276     -0.021760
O      8.50569     17.39634     10.54374         0.579237     -0.225835     -0.027545
O     12.47271      3.58206     10.54374        -0.467798      0.150442      0.055103
O     12.47271     17.39634     10.43466        -0.387387      0.051669     -0.011339
O     11.90042     11.90042     19.56718        -0.272767     -0.330000      0.256487
O     19.56718     19.56718     19.56718         0.285409      0.277726      0.290202
O     19.56718     11.90042     11.90042         0.282620     -0.309663     -0.201403
O     11.90042     19.56718     11.90042        -0.269771      0.282792     -0.260935
O      9.45224      1.03696      9.45224        -0.086801      0.053538     -0.053550
O      1.03696      9.45224      9.45224         0.044918     -0.172526     -0.106516
O      1.03696      1.03696      1.03696         0.005280      0.095811      0.204926
O      9.45224      9.45224      1.03696        -0.059333     -0.082750      0.132118
Zr     10.48920      2.52580     10.48920        -0.016564     -0.101037     -0.160005
Zr     10.48920     18.45260     10.48920         0.044069      0.255364      0.008937
Zr     10.48920     10.48920      2.52580         0.000296     -0.182340     -0.544005
Zr     10.48920     10.48920     18.45260        -0.106211      0.046032      0.475960
Zr      2.52580     10.48920     10.48920        -0.360724      0.321212      0.117015
Zr     18.45260     10.48920     10.48920         0.211507      0.037856     -0.271105
Pd      8.61508      9.89957     13.26965        -0.037803     -0.010878     -0.010634
Pd     10.54097      9.49855     10.33956         0.068987     -0.038110     -0.036920
Pd     13.44103      8.72936     12.50576         0.019938      0.014199      0.027213
Pd     10.59486     10.63077     15.12514        -0.093896      0.039738     -0.102108
Pd     13.00010     11.32926     13.46661        -0.014149     -0.015452      0.010496
Pd     14.96990     10.78385     11.28738        -0.033856     -0.068444     -0.005046
Pd      6.76646      7.92712     12.58010         0.033155      0.022178     -0.072152
Pd      9.25497      7.19501      9.62642         0.032149      0.051712     -0.038802
Pd      9.41859      7.48219     12.38415         0.003151      0.092018     -0.030502
Pd     11.70982      7.21409     11.09346         0.078571      0.024817     -0.061789
Pd     11.66002      7.84728      8.45846        -0.016945      0.029284     -0.001105
Pd      7.21809     11.71303     11.62078        -0.032293     -0.023793      0.007582
Pd      9.29332     14.44928      9.43628        -0.079566      0.005422      0.016330
Pd      8.21502     12.39246     14.19699        -0.045490      0.021770      0.064984
Pd     14.17427     14.22025      8.33327        -0.010060     -0.036263     -0.027094
Pd     11.68440     13.41057      8.88850        -0.060057     -0.011600     -0.070404
Pd     14.05313     11.64409      8.92855         0.021078     -0.017221     -0.009169
Pd      8.77967     13.90893     12.12378        -0.006418     -0.003007      0.001295
Pd     12.21398     13.86705     14.03439        -0.013541     -0.025000     -0.031491
Pd     11.43016     14.10803     11.44016        -0.006819     -0.020801     -0.047550
Pd     14.07499     13.41634     12.15776         0.012593      0.092338     -0.011343
Pd     12.34403     11.64164     10.92034         0.029077     -0.044406      0.022157
Pd     12.80033     12.63112      6.63069        -0.006313     -0.035431      0.019266
Pd     13.93400      8.92198      7.65834        -0.079796     -0.014894     -0.017218
Pd      6.97491      8.42811      8.53067        -0.020087     -0.044380      0.011561
Pd      5.58300     10.00938     10.23643         0.008452      0.038726      0.038258
Pd      9.36444      9.42189      7.64261         0.031588      0.008702     -0.026857
Pd      8.48794      6.92078      7.02382         0.050566      0.027525     -0.058370
Pd      9.71093     11.93926     10.56018         0.037462      0.080030      0.108398
Pd     11.63361     10.72181      8.19324         0.167307     -0.065371     -0.038261
Pd     11.67263      9.05460      6.06038         0.030786     -0.031666     -0.082734
Pd     10.26918     11.34001      5.85883         0.106235      0.023828      0.022539
Ir     11.07871      9.55500     12.79918        -0.020836      0.101854     -0.055689
Ir     13.18475      9.34552     10.04192        -0.070482     -0.037679     -0.065391
Ir     10.53533     12.04972     12.93943        -0.011353     -0.096452     -0.033000
Ir      7.74278     10.95594      9.12749        -0.164413     -0.009116      0.034766
Ir      9.39929     12.24489      8.04862         0.074057      0.017007     -0.093244
Ir      8.08599      9.22353     10.83679        -0.111528     -0.035965      0.147671
