152
# total energy = -1092.35179008 eVH     10.35389      5.87395      7.64558         0.785019     -0.593245      1.528648
H     10.62451     15.10445      7.64558        -0.774999      0.815008      1.891541
H     10.62451      5.87395     13.33282         0.430918     -0.193473     -1.731168
H     10.35389     15.10445     13.33282        -0.635277      0.379720     -1.833741
H      7.64558     10.35389      5.87395         0.368414     -0.050975     -0.003743
H      7.64558     10.62451     15.10445         0.462217     -0.091713      0.050116
H     13.33282     10.62451      5.87395        -0.493414      0.006253      0.094136
H     13.33282     10.35389     15.10445        -0.501995      0.146873      0.025932
H      5.87395      7.64558     10.35389         0.042124      1.359084     -0.138831
H     15.10445      7.64558     10.62451        -0.014913      0.663727     -0.002701
H      5.87395     13.33282     10.62451        -0.064334     -0.539748      0.006334
H     15.10445     13.33282     10.35389         0.236558     -1.580325      0.185631
H      5.87395     10.35389      7.64558        -0.351621     -0.247732     -0.069499
H     15.10445     10.62451      7.64558         0.296207      0.213975      0.074005
H      5.87395     10.62451     13.33282        -0.192289      0.083705      0.039971
H     15.10445     10.35389     13.33282         0.058994     -0.185400     -0.039504
H     10.35389      7.64558      5.87395        -0.221552      0.520074     -0.088069
H     10.62451      7.64558     15.10445         0.119674      0.548335      0.292097
H     10.62451     13.33282      5.87395        -0.139337     -0.973677     -0.178721
H     10.35389     13.33282     15.10445        -0.228111     -0.724788      0.273579
H      7.64558      5.87395     10.35389         0.420849     -0.046491     -0.127537
H      7.64558     15.10445     10.62451         0.533927     -0.006678     -0.112340
H     13.33282      5.87395     10.62451        -0.435025      0.000746      0.053102
H     13.33282     15.10445     10.35389        -0.476942      0.183834     -0.047375
H     12.45634     12.45634     19.01126         0.257823      0.250401     -0.243628
H     19.01126     19.01126     19.01126        -0.256377     -0.246863     -0.247524
H     19.01126     12.45634     12.45634        -0.254635      0.266903      0.234101
H     12.45634     19.01126     12.45634         0.260191     -0.265922      0.230129
C     10.35284      5.61067      6.59456        -0.551866     -0.083564     -1.806142
C     10.62556     15.36773      6.59456         0.460859      0.016661     -2.021316
C     10.62556      5.61067     14.38384        -0.424882     -0.048530      1.786331
C     10.35284     15.36773     14.38384         0.383416      0.191788      1.985846
C      6.59456     10.35284      5.61067        -0.613905     -0.012793     -0.249720
C      6.59456     10.62556     15.36773        -0.880676     -0.051664      0.164328
C     14.38384     10.62556      5.61067         0.736756      0.008376     -0.114672
C     14.38384     10.35284     15.36773         0.784738      0.004356      0.234699
C      5.61067      6.59456     10.35284        -0.080333     -0.844503      0.121448
C     15.36773      6.59456     10.62556         0.171643     -1.037834     -0.007575
C      5.61067     14.38384     10.62556        -0.235481      0.934179      0.003683
C     15.36773     14.38384     10.35284         0.119896      1.248877      0.006386
C      5.61067     10.35284      6.59456        -0.737082      0.030606     -2.040585
C     15.36773     10.62556      6.59456         0.667805     -0.001609     -1.999486
C      5.61067     10.62556     14.38384        -0.817460     -0.007256      1.987751
C     15.36773     10.35284     14.38384         0.595466     -0.087381      1.546143
C     10.35284      6.59456      5.61067         0.044680     -1.495740     -0.784972
C     10.62556      6.59456     15.36773        -0.012277     -1.636937      0.996943
C     10.62556     14.38384      5.61067         0.029051      1.779958     -0.915233
C     10.35284     14.38384     15.36773        -0.058052      1.768615      1.008888
C      6.59456      5.61067     10.35284        -0.372391     -0.905781     -0.167176
C      6.59456     15.36773     10.62556        -1.461215      0.718488      0.067158
C     14.38384      5.61067     10.62556         1.374211     -0.700783     -0.002310
C     14.38384     15.36773     10.35284         0.349204      1.044126     -0.015153
C     10.40319      3.19606      7.29314         0.002563      0.560450     -0.390702
C     10.35913      4.25547      6.23373         0.048686     -0.841233      0.570366
C      0.08601      7.29314      7.29314         0.009406     -0.482904     -0.405104
C      0.13007      6.23373      6.23373        -0.032691      0.880175      0.592714
C      0.08601      3.19606      3.19606        -0.025258      0.566238      0.355034
C      0.13007      4.25547      4.25547        -0.024920     -0.952128     -0.477260
C     10.40319      7.29314      3.19606         0.054971     -0.494342      0.390362
C     10.35913      6.23373      4.25547         0.066919      0.729320     -0.538131
C      7.29314     10.40319      3.19606        -0.322852      0.005630      0.615731
C      6.23373     10.35913      4.25547         0.219763     -0.044672     -0.319124
C      7.29314      0.08601      7.29314        -0.296641      0.007774     -0.429034
C      6.23373      0.13007      6.23373         0.110439     -0.012363      0.456750
C      3.19606      0.08601      3.19606         0.304624      0.005238      0.628233
C      4.25547      0.13007      4.25547        -0.214496      0.058021     -0.356919
C      3.19606     10.40319      7.29314         0.304793      0.006849     -0.570381
C      4.25547     10.35913      6.23373        -0.243755      0.036080      0.592855
C      3.19606      7.29314     10.40319         0.246640     -0.419667      0.002468
C      4.25547      6.23373     10.35913        -0.696263      0.337654      0.031888
C      7.29314      7.29314      0.08601        -0.479607     -0.236861      0.001143
C      6.23373      6.23373      0.13007         0.080223      0.301647     -0.028910
C      3.19606      3.19606      0.08601         0.428782      0.265117     -0.016891
C      4.25547      4.25547      0.13007        -0.058237     -0.204874     -0.019752
C      7.29314      3.19606     10.40319        -0.304951      0.549545     -0.017891
C      6.23373      4.25547     10.35913         0.774924     -0.458920      0.043897
O     10.43466      3.58206      8.50569        -0.012642      0.187832      0.385696
O     10.54374     17.39634      8.50569        -0.008581     -0.213796      0.396569
O     10.54374      3.58206     12.47271         0.071954      0.178726     -0.344723
O     10.43466     17.39634     12.47271        -0.111181     -0.209160     -0.353934
O      8.50569     10.43466      3.58206         0.425168     -0.023393      0.099583
O      8.50569     10.54374     17.39634         0.450987      0.053536     -0.133881
O     12.47271     10.54374      3.58206        -0.395892      0.003807      0.084687
O     12.47271     10.43466     17.39634        -0.434410     -0.053593     -0.122118
O      3.58206      8.50569     10.43466         0.151532      0.459760     -0.045611
O     17.39634      8.50569     10.54374        -0.095275      0.441466      0.033617
O      3.58206     12.47271     10.54374         0.078248     -0.427574      0.049110
O     17.39634     12.47271     10.43466        -0.220144     -0.575410     -0.000208
O      3.58206     10.43466      8.50569         0.212971     -0.007885      0.517588
O     17.39634     10.54374      8.50569        -0.160067     -0.000933      0.474725
O      3.58206     10.54374     12.47271         0.295238      0.042112     -0.544415
O     17.39634     10.43466     12.47271        -0.215463     -0.009817     -0.579578
O     10.43466      8.50569      3.58206         0.030137      0.541349      0.267411
O     10.54374      8.50569     17.39634         0.068311      0.545990     -0.257345
O     10.54374     12.47271      3.58206         0.000351     -0.624542      0.279981
O     10.43466     12.47271     17.39634        -0.040776     -0.587520     -0.273888
O      8.50569      3.58206     10.43466         0.538460      0.140943     -0.034015
O      8.50569     17.39634     10.54374         0.559399     -0.168192      0.042868
O     12.47271      3.58206     10.54374        -0.548765      0.175789      0.001467
O     12.47271     17.39634     10.43466        -0.515994     -0.170920     -0.020151
O     11.90042     11.90042     19.56718        -0.293917     -0.298446      0.262813
O     19.56718     19.56718     19.56718         0.301952      0.286981      0.274504
O     19.56718     11.90042     11.90042         0.307567     -0.323124     -0.254274
O     11.90042     19.56718     11.90042        -0.300199      0.307790     -0.242072
O      9.45224      1.03696      9.45224        -0.046762      0.037274     -0.082248
O      1.03696      9.45224      9.45224         0.050902     -0.052532     -0.073389
O      1.03696      1.03696      1.03696         0.063642      0.036552      0.111390
O      9.45224      9.45224      1.03696        -0.045616     -0.064830      0.106862
Zr     10.48920      2.52580     10.48920        -0.128592     -0.076749      0.011141
Zr     10.48920     18.45260     10.48920         0.114589      0.128514     -0.062042
Zr     10.48920     10.48920      2.52580        -0.029794      0.046251     -0.263183
Zr     10.48920     10.48920     18.45260        -0.010060     -0.020439      0.189633
Zr      2.52580     10.48920     10.48920        -0.102895     -0.031133     -0.086757
Zr     18.45260     10.48920     10.48920         0.161128      0.066918     -0.085609
Pd     13.24783      8.31327      7.95858        -0.022047      0.019471     -0.186483
Pd      9.10238     14.42394     11.93216         0.016325     -0.065674     -0.136923
Pd     12.23459     11.17825     10.56006        -0.074353     -0.028652     -0.076043
Pd     14.62248     10.70735     11.69867         0.109401     -0.082199      0.095222
Pd     11.12516      9.23369      6.43500         0.020122     -0.063085     -0.176229
Pd      6.88534      7.94748      8.49344         0.016920      0.042889      0.122938
Ir     10.03807     11.85249     11.86492         0.113747     -0.107053     -0.017805
Ir     13.13089      8.62216     10.58969        -0.068077      0.070801      0.101887
Ir     12.19842     11.13214      7.90644         0.181810      0.037972     -0.038299
Ir      9.19236     14.19976      9.20473         0.056401      0.016295      0.090703
Ir     10.84704      9.30427     11.81961         0.287887      0.004617      0.242591
Ir      8.74502      9.78071      7.88969        -0.239919      0.099760      0.073082
Ir     13.63671     12.90086      9.10551        -0.075828     -0.037420     -0.001650
Ir     11.54414     13.58543      7.89133         0.166251      0.076235     -0.016603
Ir     14.31882     10.41848      9.21583         0.115668     -0.306827     -0.130291
Ir      9.47439      7.31581     10.58663        -0.095838     -0.034323      0.065102
Ir      7.89373     12.34891      7.87773        -0.004213      0.009506      0.058407
Ir      9.42513      7.41743      8.03111         0.050614     -0.053972      0.087570
Ir     11.54403     13.66748     13.17642         0.010604      0.036085     -0.125554
Ir     11.76551      6.94177     12.02612        -0.111666     -0.098277     -0.002275
Ir     10.00424     11.71717      9.21078         0.074510     -0.095624      0.087038
Ir     13.19962      8.65453     13.19792        -0.046218      0.039281      0.054911
Ir     10.94516      9.18653      9.17989         0.049588      0.064491     -0.067820
Ir     11.33725     13.72449     10.48479         0.245454      0.080774     -0.036782
Ir     13.51875     13.14895     11.89779         0.029942     -0.114458     -0.128267
Ir     12.27226     11.21661     13.20170         0.143185     -0.093273      0.017437
Ir     10.02042     11.60479      6.60460        -0.054097     -0.078028     -0.078597
Ir     11.65696      6.75484      9.49489         0.191344     -0.273474     -0.310970
Ir      7.27554      7.96082     11.89817         0.228853      0.035675      0.068131
Ir      7.87068     12.41188     10.52426         0.007763      0.162894     -0.139981
Ir     11.00480      9.32643     14.36505         0.006846     -0.107303     -0.032339
Ir      7.82976     12.25964     13.07949        -0.121254      0.066147      0.235839
Ir      6.56610     10.53470      9.24502         0.159761      0.113298      0.393518
Ir      8.67973      9.79275     13.19536        -0.012804      0.013922     -0.026546
Ir      6.46912     10.42569     11.66071         0.093172      0.008008     -0.304887
Ir      9.23679      7.26400     13.18931         0.030279     -0.024725     -0.018932
Ir      9.98997     11.61103     14.43595        -0.101974      0.149070     -0.008086
Ir      8.67770      9.78655     10.53344        -0.200929      0.090545     -0.074765
