152
# total energy = -1005.54033933 eVH     10.35389      5.87395      7.64558         0.159373      0.102017      0.570485
H     10.62451     15.10445      7.64558        -0.119262     -0.147088      0.499284
H     10.62451      5.87395     13.33282         0.579164      0.084355     -0.836163
H     10.35389     15.10445     13.33282         0.024930     -0.157475     -0.403012
H      7.64558     10.35389      5.87395         0.354798      0.038739      0.165001
H      7.64558     10.62451     15.10445         0.886982      0.532080      0.002010
H     13.33282     10.62451      5.87395        -0.438459      0.350221      0.111005
H     13.33282     10.35389     15.10445        -0.851010     -0.072119      0.008114
H      5.87395      7.64558     10.35389         0.317304      1.206211      0.032628
H     15.10445      7.64558     10.62451        -0.107486      0.488010      0.294476
H      5.87395     13.33282     10.62451         0.184930     -0.615958      0.043608
H     15.10445     13.33282     10.35389        -0.079629     -0.949446     -0.201377
H      5.87395     10.35389      7.64558         0.206589      0.051861      0.441463
H     15.10445     10.62451      7.64558        -0.141141      0.515784      0.773753
H      5.87395     10.62451     13.33282         0.058540      0.421288     -1.023417
H     15.10445     10.35389     13.33282        -0.075170     -0.032534     -0.644453
H     10.35389      7.64558      5.87395         0.329345      1.167313      0.063731
H     10.62451      7.64558     15.10445         0.686857      0.680568     -0.216087
H     10.62451     13.33282      5.87395        -0.398673     -0.810667      0.269574
H     10.35389     13.33282     15.10445        -0.101191     -0.470025     -0.288726
H      7.64558      5.87395     10.35389         0.839677      0.056926     -0.212922
H      7.64558     15.10445     10.62451         0.804159     -0.179164      0.031134
H     13.33282      5.87395     10.62451        -0.717677      0.168287      0.515178
H     13.33282     15.10445     10.35389        -0.377169     -0.118990     -0.092420
H     12.45634     12.45634     19.01126         0.245966      0.271758     -0.232908
H     19.01126     19.01126     19.01126        -0.274580     -0.249445     -0.239900
H     19.01126     12.45634     12.45634        -0.277692      0.263112      0.220041
H     12.45634     19.01126     12.45634         0.236183     -0.262774      0.273267
C     10.35284      5.61067      6.59456        -0.320163     -0.744679     -0.101825
C     10.62556     15.36773      6.59456         0.061834      0.334945     -0.263506
C     10.62556      5.61067     14.38384        -0.149187     -0.513080      0.262856
C     10.35284     15.36773     14.38384         0.017506      0.192129      0.354482
C      6.59456     10.35284      5.61067        -0.394481      0.012196     -0.251046
C      6.59456     10.62556     15.36773        -0.642103      0.082054      0.643387
C     14.38384     10.62556      5.61067        -0.257090     -0.464306     -0.676923
C     14.38384     10.35284     15.36773         1.047221     -0.088059      0.177927
C      5.61067      6.59456     10.35284        -0.736628     -0.252160     -0.346346
C     15.36773      6.59456     10.62556         0.535655      0.014303     -0.349985
C      5.61067     14.38384     10.62556        -0.229703      0.675207     -0.016486
C     15.36773     14.38384     10.35284         0.277481      0.955715      0.027182
C      5.61067     10.35284      6.59456        -0.297843      0.003981     -0.768985
C     15.36773     10.62556      6.59456         0.494388     -0.264002      0.205295
C      5.61067     10.62556     14.38384        -0.680770     -0.020579      0.497673
C     15.36773     10.35284     14.38384         0.428394     -0.034584      1.002427
C     10.35284      6.59456      5.61067        -0.139604     -0.765406     -0.567370
C     10.62556      6.59456     15.36773        -0.073216     -0.433426      0.584489
C     10.62556     14.38384      5.61067         0.199043      1.154181     -0.353532
C     10.35284     14.38384     15.36773        -0.003302      0.833016      0.386852
C      6.59456      5.61067     10.35284         0.118635     -1.064225      0.259633
C      6.59456     15.36773     10.62556        -0.977677      0.229160      0.079821
C     14.38384      5.61067     10.62556         0.307047     -0.557806     -0.366260
C     14.38384     15.36773     10.35284         0.142260      0.370157     -0.078442
C     10.40319      3.19606      7.29314         0.004393      0.851290     -0.451050
C     10.35913      4.25547      6.23373         0.064541     -0.549155      0.104986
C      0.08601      7.29314      7.29314        -0.041875     -0.807641     -0.239470
C      0.13007      6.23373      6.23373        -0.044293      0.199524      0.461674
C      0.08601      3.19606      3.19606         0.019567      1.414565      0.266707
C      0.13007      4.25547      4.25547         0.016413     -0.625077     -0.260627
C     10.40319      7.29314      3.19606         0.002660     -0.333873      0.267098
C     10.35913      6.23373      4.25547         0.030109      0.024399     -0.732288
C      7.29314     10.40319      3.19606        -0.259637      0.017935      0.537698
C      6.23373     10.35913      4.25547         0.142246      0.043692     -0.059668
C      7.29314      0.08601      7.29314        -0.821244     -0.076194     -0.308490
C      6.23373      0.13007      6.23373         0.807623     -0.170291      0.417875
C      3.19606      0.08601      3.19606         0.927630     -0.024592      0.573927
C      4.25547      0.13007      4.25547        -0.541446     -0.089777     -0.642590
C      3.19606     10.40319      7.29314         0.544143     -0.009475     -0.759669
C      4.25547     10.35913      6.23373        -0.266882      0.065675      0.215652
C      3.19606      7.29314     10.40319         0.294654     -1.303493      0.027162
C      4.25547      6.23373     10.35913        -1.051647      0.022251      0.116076
C      7.29314      7.29314      0.08601        -0.438197     -0.424143     -0.013992
C      6.23373      6.23373      0.13007         0.540352      0.235981      0.015061
C      3.19606      3.19606      0.08601         0.450432      0.353122     -0.034067
C      4.25547      4.25547      0.13007        -0.131715     -0.580595     -0.046085
C      7.29314      3.19606     10.40319        -0.385691      0.444910      0.056198
C      6.23373      4.25547     10.35913         0.261857     -0.740479      0.137905
O     10.43466      3.58206      8.50569        -0.014555      0.054644      0.449312
O     10.54374     17.39634      8.50569         0.063536     -0.081877      0.351122
O     10.54374      3.58206     12.47271         0.026064     -0.120528     -0.144278
O     10.43466     17.39634     12.47271        -0.028313     -0.167448     -0.518934
O      8.50569     10.43466      3.58206         0.276497     -0.021926      0.011731
O      8.50569     10.54374     17.39634         0.778094     -0.041584     -0.176030
O     12.47271     10.54374      3.58206        -0.805907      0.097827      0.086208
O     12.47271     10.43466     17.39634        -0.477871      0.034007     -0.079097
O      3.58206      8.50569     10.43466         0.156885      1.080678     -0.033529
O     17.39634      8.50569     10.54374        -0.158580      0.586070      0.068258
O      3.58206     12.47271     10.54374         0.103506     -0.437434      0.037820
O     17.39634     12.47271     10.43466        -0.145686     -0.553520     -0.030828
O      3.58206     10.43466      8.50569         0.068768     -0.089955      0.608559
O     17.39634     10.54374      8.50569        -0.036964      0.089338      0.427638
O      3.58206     10.54374     12.47271         0.012830      0.035311     -0.490619
O     17.39634     10.43466     12.47271        -0.231010     -0.045772     -0.647978
O     10.43466      8.50569      3.58206        -0.038752      0.451662      0.139808
O     10.54374      8.50569     17.39634        -0.056741      0.697742     -0.215811
O     10.54374     12.47271      3.58206         0.036077     -0.999497      0.108248
O     10.43466     12.47271     17.39634         0.058539     -0.801105     -0.212755
O      8.50569      3.58206     10.43466         0.574930      0.153137     -0.054188
O      8.50569     17.39634     10.54374         0.528535     -0.180349      0.000320
O     12.47271      3.58206     10.54374        -0.604097      0.193913      0.003300
O     12.47271     17.39634     10.43466        -0.250911      0.070916     -0.044269
O     11.90042     11.90042     19.56718        -0.262979     -0.308175      0.229834
O     19.56718     19.56718     19.56718         0.325062      0.294379      0.250093
O     19.56718     11.90042     11.90042         0.316502     -0.261130     -0.235910
O     11.90042     19.56718     11.90042        -0.238556      0.301532     -0.329275
O      9.45224      1.03696      9.45224         0.002289      0.069258     -0.129481
O      1.03696      9.45224      9.45224         0.085458     -0.073241     -0.167269
O      1.03696      1.03696      1.03696         0.111758      0.167810      0.028443
O      9.45224      9.45224      1.03696        -0.094244     -0.112585      0.012999
Zr     10.48920      2.52580     10.48920        -0.094855     -0.220009     -0.018945
Zr     10.48920     18.45260     10.48920        -0.098820      0.185837      0.177691
Zr     10.48920     10.48920      2.52580        -0.103891     -0.440052     -0.208128
Zr     10.48920     10.48920     18.45260        -0.158931      0.019562      0.428083
Zr      2.52580     10.48920     10.48920        -0.341761      0.284928      0.293555
Zr     18.45260     10.48920     10.48920         0.162901      0.013657     -0.109502
Pd     13.62356      8.95470      9.12827         0.000681     -0.002355      0.017340
Pd      5.70500      9.73030      9.99426         0.001825      0.018053      0.018392
Pd      6.84614     11.42739     11.71179        -0.019472      0.068036     -0.008486
Pd     12.18460     13.11712      7.33736         0.003609     -0.008767     -0.002340
Pd     12.08400      7.88326      7.18691        -0.011289     -0.009132      0.026120
Pd      8.29193      7.05642      6.55691         0.000229     -0.002700      0.007459
Pd     10.87792     11.29042      5.58027         0.007860     -0.005856     -0.002440
Pd     14.63208      8.53277      6.69388        -0.010955     -0.000755      0.011255
Pd      9.64059     11.80515      8.00414         0.005090     -0.002276     -0.004047
Pd      6.71076      6.78196     12.29816         0.026157      0.002083     -0.007155
Pd      6.38679      7.57213      8.27512        -0.004633      0.016929     -0.002523
Pd      6.96923      8.83380     13.91239        -0.034319     -0.047882      0.047663
Pd     11.63283      6.54706      9.48756        -0.022482     -0.003214      0.034394
Pd      9.74197      9.29484      6.89877        -0.005211     -0.001655      0.004794
Pd      9.02572     13.96808      9.41432        -0.004015     -0.000547     -0.008536
Pd      9.99368      7.09180     11.54024        -0.059183      0.037722      0.032465
Pd     10.52678      8.96744      9.55111        -0.004798      0.002253      0.010734
Pd      9.35644     11.27562     10.60665        -0.008826      0.019368     -0.003186
Pd      8.89016      6.99495      9.12366        -0.007362      0.006619      0.009518
Pd      8.76640      6.89472     13.89207        -0.029302     -0.052913      0.054839
Pd      8.02756      8.94616     11.43042        -0.039945      0.059561      0.047609
Pd     11.95370     10.52255      7.83649         0.008049     -0.008031      0.001718
Pd      7.13958     12.05653      9.14406        -0.002250     -0.001253     -0.018207
Pd      8.02536      9.59006      8.80812         0.001210     -0.000710      0.022320
Pd     14.17003      6.49957      8.44802        -0.020559     -0.006557      0.005794
Pd     12.54002      8.25362     11.46704        -0.015492     -0.000416      0.008085
Pd      8.81766     11.35178     13.42878        -0.018338      0.019359     -0.005171
Pd     13.89665     11.93026      9.04013         0.001734     -0.002194     -0.002856
Pd     12.86661     10.57130     13.09044         0.005075      0.003235     -0.000327
Pd     14.71894     10.31400     11.13608         0.007762      0.011399      0.001367
Pd     12.05074     10.73557     10.59171         0.006155      0.002738     -0.004072
Pd     11.45063     13.15506      9.86830        -0.001101      0.002171     -0.005447
Pd     13.56650     12.81525     11.67218        -0.000701      0.004453     -0.003354
Pd     11.03641     12.53556     12.44463         0.001803     -0.002120      0.000411
Pd     11.09309     11.35603     14.87992        -0.013404     -0.011524     -0.001633
Pd     10.47005      9.51735     12.55314        -0.000928      0.031749     -0.017453
Pd      9.43682      9.29917     14.98474        -0.013071     -0.016717     -0.047256
Pd      8.63076     13.53398     11.99446         0.018240      0.029691      0.001310
