152
# total energy = -1024.41699427 eVH     10.35389      5.87395      7.64558         0.480453      0.027166      0.733434
H     10.62451     15.10445      7.64558         0.057761     -0.199569      0.626268
H     10.62451      5.87395     13.33282         0.090939      0.159381     -0.565744
H     10.35389     15.10445     13.33282        -0.474542     -0.033697     -0.747120
H      7.64558     10.35389      5.87395         0.342591      0.024094      0.160600
H      7.64558     10.62451     15.10445         0.907203     -0.259499      0.038460
H     13.33282     10.62451      5.87395        -0.771014     -0.105619      0.150063
H     13.33282     10.35389     15.10445        -0.888896     -0.409333      0.200500
H      5.87395      7.64558     10.35389         0.163364      0.744526     -0.331577
H     15.10445      7.64558     10.62451        -0.138852      0.385232     -0.020514
H      5.87395     13.33282     10.62451         0.158723     -0.516613     -0.106756
H     15.10445     13.33282     10.35389        -0.092921     -1.194312      0.083820
H      5.87395     10.35389      7.64558         0.140741      0.167556      0.518703
H     15.10445     10.62451      7.64558         0.010740      0.092231      1.052180
H      5.87395     10.62451     13.33282         0.079082     -0.042666     -0.457652
H     15.10445     10.35389     13.33282        -0.163793     -0.168507     -0.460301
H     10.35389      7.64558      5.87395         0.086548      1.028858      0.232724
H     10.62451      7.64558     15.10445         0.001089      0.270438     -0.164062
H     10.62451     13.33282      5.87395        -0.096974     -0.389252      0.319688
H     10.35389     13.33282     15.10445        -0.447323     -0.593453     -0.003168
H      7.64558      5.87395     10.35389         0.515362      0.094263     -0.096064
H      7.64558     15.10445     10.62451         0.930517     -0.224120     -0.173863
H     13.33282      5.87395     10.62451        -0.593496      0.097097     -0.069639
H     13.33282     15.10445     10.35389        -0.597156     -0.058716      0.247645
H     12.45634     12.45634     19.01126         0.234912      0.278962     -0.237301
H     19.01126     19.01126     19.01126        -0.249781     -0.249183     -0.241937
H     19.01126     12.45634     12.45634        -0.266573      0.265017      0.220093
H     12.45634     19.01126     12.45634         0.237853     -0.266575      0.239156
C     10.35284      5.61067      6.59456        -0.205911     -0.699300      0.102803
C     10.62556     15.36773      6.59456        -0.047518      0.383155     -0.852872
C     10.62556      5.61067     14.38384        -0.005350     -0.053358      0.686099
C     10.35284     15.36773     14.38384         0.189534      0.697522      0.160411
C      6.59456     10.35284      5.61067        -0.343499     -0.017297     -0.302469
C      6.59456     10.62556     15.36773        -1.086557      0.260097      0.293000
C     14.38384     10.62556      5.61067         0.402685      0.376578     -0.690637
C     14.38384     10.35284     15.36773         1.037809      0.019248      0.253317
C      5.61067      6.59456     10.35284        -0.406534     -0.386740      0.368581
C     15.36773      6.59456     10.62556         0.189810     -0.496840      0.014439
C      5.61067     14.38384     10.62556        -0.198379      0.576024      0.003964
C     15.36773     14.38384     10.35284         0.339482      0.037441     -0.120128
C      5.61067     10.35284      6.59456        -0.327008     -0.084550     -1.025261
C     15.36773     10.62556      6.59456         0.902007     -0.343429     -0.987201
C      5.61067     10.62556     14.38384        -0.420226      0.028381      0.310217
C     15.36773     10.35284     14.38384         0.653838     -0.095648      1.085571
C     10.35284      6.59456      5.61067        -0.219574     -0.588304     -0.947479
C     10.62556      6.59456     15.36773         0.057992     -0.266886      0.043003
C     10.62556     14.38384      5.61067         0.071522      1.198049     -0.419853
C     10.35284     14.38384     15.36773         0.273364      0.151780      0.701849
C      6.59456      5.61067     10.35284        -0.191013     -0.740764      0.134454
C      6.59456     15.36773     10.62556        -1.217715      0.245513      0.163817
C     14.38384      5.61067     10.62556         1.051145     -0.297531      0.036857
C     14.38384     15.36773     10.35284        -0.472664      0.818070     -0.399168
C     10.40319      3.19606      7.29314        -0.032520      0.865142     -0.411632
C     10.35913      4.25547      6.23373         0.053529     -0.501321      0.552173
C      0.08601      7.29314      7.29314        -0.022552     -0.418189     -0.349036
C      0.13007      6.23373      6.23373        -0.023810      0.016079      0.102671
C      0.08601      3.19606      3.19606         0.009304      1.268881      0.191161
C      0.13007      4.25547      4.25547        -0.045951     -0.216855     -0.200737
C     10.40319      7.29314      3.19606        -0.015105     -1.054742      0.369203
C     10.35913      6.23373      4.25547         0.033954      0.470946     -0.677336
C      7.29314     10.40319      3.19606        -0.312469      0.033234      0.720755
C      6.23373     10.35913      4.25547         0.153280      0.072787     -0.105834
C      7.29314      0.08601      7.29314        -0.652564     -0.021964     -0.276584
C      6.23373      0.13007      6.23373         0.382028     -0.076471      0.528161
C      3.19606      0.08601      3.19606         1.006307     -0.005700      0.253559
C      4.25547      0.13007      4.25547        -0.156208     -0.039137     -0.528115
C      3.19606     10.40319      7.29314         0.367368     -0.012066     -0.967840
C      4.25547     10.35913      6.23373        -0.279974      0.092435      0.246879
C      3.19606      7.29314     10.40319         0.515255     -1.317562     -0.039409
C      4.25547      6.23373     10.35913        -0.540412      0.750490      0.111619
C      7.29314      7.29314      0.08601        -0.392366     -0.224133     -0.000386
C      6.23373      6.23373      0.13007         0.156334      0.143696     -0.003421
C      3.19606      3.19606      0.08601         0.256583      0.254520     -0.017120
C      4.25547      4.25547      0.13007        -0.121530     -0.054559      0.007489
C      7.29314      3.19606     10.40319        -0.391358      0.646427      0.007996
C      6.23373      4.25547     10.35913         1.099281     -0.096041      0.055785
O     10.43466      3.58206      8.50569        -0.025120      0.047884      0.448092
O     10.54374     17.39634      8.50569        -0.006591     -0.109845      0.459614
O     10.54374      3.58206     12.47271         0.039815     -0.106426     -0.130546
O     10.43466     17.39634     12.47271        -0.058473     -0.044977     -0.472564
O      8.50569     10.43466      3.58206         0.291831     -0.032080     -0.033670
O      8.50569     10.54374     17.39634         0.720503      0.026213     -0.198689
O     12.47271     10.54374      3.58206        -0.793008     -0.037972      0.151536
O     12.47271     10.43466     17.39634        -0.282546     -0.027932      0.033365
O      3.58206      8.50569     10.43466         0.157167      1.086189     -0.037501
O     17.39634      8.50569     10.54374        -0.097069      0.429621      0.058068
O      3.58206     12.47271     10.54374         0.067832     -0.400357      0.036466
O     17.39634     12.47271     10.43466        -0.159946     -0.683381     -0.008811
O      3.58206     10.43466      8.50569         0.067445     -0.067986      0.808863
O     17.39634     10.54374      8.50569        -0.061278      0.047105      0.335594
O      3.58206     10.54374     12.47271        -0.013126      0.037664     -0.239852
O     17.39634     10.43466     12.47271        -0.252182      0.002505     -0.710766
O     10.43466      8.50569      3.58206         0.118549      0.832851      0.192125
O     10.54374      8.50569     17.39634         0.032161      0.615415     -0.147652
O     10.54374     12.47271      3.58206         0.007258     -1.011391      0.178632
O     10.43466     12.47271     17.39634        -0.039040     -0.917020     -0.205148
O      8.50569      3.58206     10.43466         0.558983      0.122856     -0.015744
O      8.50569     17.39634     10.54374         0.513626     -0.197502     -0.009518
O     12.47271      3.58206     10.54374        -0.474247      0.159331      0.058214
O     12.47271     17.39634     10.43466        -0.416544      0.022667     -0.005032
O     11.90042     11.90042     19.56718        -0.265462     -0.328976      0.255574
O     19.56718     19.56718     19.56718         0.279659      0.292395      0.282474
O     19.56718     11.90042     11.90042         0.300618     -0.301120     -0.203429
O     11.90042     19.56718     11.90042        -0.267248      0.285513     -0.248692
O      9.45224      1.03696      9.45224        -0.080009      0.045630     -0.060176
O      1.03696      9.45224      9.45224         0.041639     -0.152517     -0.118584
O      1.03696      1.03696      1.03696         0.023577      0.118456      0.197346
O      9.45224      9.45224      1.03696        -0.068035     -0.086798      0.118080
Zr     10.48920      2.52580     10.48920        -0.049542     -0.118529     -0.168843
Zr     10.48920     18.45260     10.48920         0.011521      0.214873     -0.022685
Zr     10.48920     10.48920      2.52580        -0.162651     -0.188509     -0.516538
Zr     10.48920     10.48920     18.45260        -0.008408     -0.000720      0.437904
Zr      2.52580     10.48920     10.48920        -0.361454      0.292381      0.194465
Zr     18.45260     10.48920     10.48920         0.203049      0.054856     -0.201558
Pd      8.33251      9.70532     13.22787         0.007483     -0.002786      0.053981
Pd     10.50023      9.45828     10.18933        -0.007548     -0.019689     -0.007140
Pd     13.05804      8.77093     12.46507        -0.005884     -0.004782      0.012751
Pd     10.29915     10.76967     15.04746         0.027910      0.016702      0.021474
Pd     12.83768     11.35485     13.54448        -0.040009     -0.018137      0.029120
Pd     14.85198     10.63951     11.36414         0.000790     -0.038887     -0.018343
Pd      6.86626      7.55604     12.28703         0.008136     -0.043581      0.037616
Pd      9.22099      7.20069      9.46367        -0.019327      0.003851     -0.017594
Pd      9.56207      7.54800     12.19453         0.021943     -0.017758      0.016603
Pd     11.75676      7.09797     10.81191        -0.017236     -0.003771     -0.000620
Pd     11.63310      7.83149      8.26475        -0.003143     -0.019747      0.017488
Pd      7.15872     11.68085     11.53402         0.007768      0.013451     -0.039281
Pd      9.30077     14.31558      9.27128        -0.032368      0.026149     -0.005097
Pd      8.15607     12.30168     14.02595        -0.032526      0.030897      0.002806
Pd     14.23846     14.20190      8.34654         0.015060     -0.032789     -0.003620
Pd     11.75665     13.30690      8.79903        -0.028928     -0.026582     -0.024283
Pd     14.13233     11.61576      8.99438        -0.015000      0.027477      0.007713
Pd      8.71774     13.98276     12.01592        -0.013149      0.004266      0.001539
Pd     12.22085     13.98127     13.95172         0.012326      0.025424     -0.000183
Pd     11.41829     14.13642     11.30066        -0.016370      0.012518      0.004902
Pd     14.01201     13.30353     12.09536        -0.000116      0.013982     -0.009566
Pd     12.27104     11.52359     10.88221         0.022203     -0.014894      0.024744
Pd     13.01926     12.62447      6.58734        -0.010072     -0.042404      0.019924
Pd     13.97034      8.83849      7.57431        -0.008146     -0.007335      0.004005
Pd      6.98116      8.46021      8.38079        -0.026346      0.016504      0.006408
Pd      5.55172     10.03983     10.03565         0.011856     -0.011951      0.031461
Pd      9.40870      9.46281      7.46596        -0.016859      0.017563      0.001447
Pd      8.48436      6.97940      6.86302        -0.011092     -0.008106      0.010636
Pd      9.65732     11.94406     10.53628        -0.015415     -0.001972     -0.017550
Pd     11.82055     10.61442      8.05042        -0.022189      0.019102      0.003844
Pd     11.78926      8.92512      5.85435         0.002756      0.019842     -0.000733
Pd     10.62663     11.33727      5.74308        -0.001408     -0.000472     -0.017000
Ir     10.79379      9.81412     12.69257        -0.003810      0.034100      0.007514
Ir     13.16184      9.25436      9.95226        -0.017150      0.008871     -0.009558
Ir     10.50314     12.27404     12.89192         0.006824     -0.026756      0.048687
Ir      7.75881     11.00787      9.04618        -0.011222     -0.078240      0.051932
Ir      9.60687     12.06326      7.97318        -0.004794     -0.020051     -0.022447
Ir      8.01136      9.20360     10.71217         0.011596      0.008804     -0.044949
