152
# total energy = -1023.24958974 eVH     10.35389      5.87395      7.64558         0.488662      0.082034      0.711649
H     10.62451     15.10445      7.64558        -0.108775     -0.056718      0.807986
H     10.62451      5.87395     13.33282         0.146885      0.128284     -0.634209
H     10.35389     15.10445     13.33282        -0.176524     -0.117598     -0.543541
H      7.64558     10.35389      5.87395         0.312414     -0.021453      0.194613
H      7.64558     10.62451     15.10445         0.654840     -0.222976     -0.133072
H     13.33282     10.62451      5.87395        -0.765090     -0.144415      0.205137
H     13.33282     10.35389     15.10445        -0.441011     -0.106548     -0.057692
H      5.87395      7.64558     10.35389         0.210635      1.096704     -0.264657
H     15.10445      7.64558     10.62451        -0.174627      0.468513     -0.118019
H      5.87395     13.33282     10.62451         0.161207     -0.426479     -0.064627
H     15.10445     13.33282     10.35389        -0.129342     -0.911753      0.017366
H      5.87395     10.35389      7.64558         0.135820      0.095719      0.461851
H     15.10445     10.62451      7.64558         0.098618     -0.016977      1.083391
H      5.87395     10.62451     13.33282         0.193342     -0.033430     -0.388150
H     15.10445     10.35389     13.33282        -0.119391     -0.051685     -0.546019
H     10.35389      7.64558      5.87395         0.124173      0.887200      0.190505
H     10.62451      7.64558     15.10445        -0.006932      0.514364     -0.163406
H     10.62451     13.33282      5.87395        -0.020977     -0.592028      0.226613
H     10.35389     13.33282     15.10445        -0.301834     -0.888200     -0.121821
H      7.64558      5.87395     10.35389         0.442473      0.096284     -0.050319
H      7.64558     15.10445     10.62451         0.858752     -0.278161      0.039306
H     13.33282      5.87395     10.62451        -0.454525      0.185217     -0.064758
H     13.33282     15.10445     10.35389        -0.657949     -0.097748      0.164037
H     12.45634     12.45634     19.01126         0.252747      0.264597     -0.228703
H     19.01126     19.01126     19.01126        -0.251407     -0.231819     -0.260361
H     19.01126     12.45634     12.45634        -0.236460      0.272832      0.240247
H     12.45634     19.01126     12.45634         0.224825     -0.264150      0.250979
C     10.35284      5.61067      6.59456        -0.193324     -0.364728     -0.024971
C     10.62556     15.36773      6.59456         0.066777      0.378111     -1.204315
C     10.62556      5.61067     14.38384        -0.056106     -0.241577      0.803053
C     10.35284     15.36773     14.38384         0.047290      0.888005      0.409796
C      6.59456     10.35284      5.61067        -0.370481     -0.035896     -0.172320
C      6.59456     10.62556     15.36773        -0.845117      0.203941      0.371394
C     14.38384     10.62556      5.61067         0.450093      0.298219     -0.505268
C     14.38384     10.35284     15.36773         0.783135     -0.115536      0.444749
C      5.61067      6.59456     10.35284        -0.312962     -0.649896      0.426548
C     15.36773      6.59456     10.62556         0.171439     -0.518860      0.079425
C      5.61067     14.38384     10.62556        -0.144488      0.392523     -0.021620
C     15.36773     14.38384     10.35284         0.394817     -0.043261     -0.106035
C      5.61067     10.35284      6.59456        -0.256617     -0.018172     -0.779891
C     15.36773     10.62556      6.59456         0.604976     -0.272295     -1.343419
C      5.61067     10.62556     14.38384        -0.345284      0.000854      0.429702
C     15.36773     10.35284     14.38384         0.496693     -0.165533      1.135547
C     10.35284      6.59456      5.61067        -0.165335     -0.497192     -0.435323
C     10.62556      6.59456     15.36773         0.054365     -0.615975      0.266430
C     10.62556     14.38384      5.61067         0.108961      1.009160     -0.489172
C     10.35284     14.38384     15.36773         0.247756      0.591615      0.547540
C      6.59456      5.61067     10.35284        -0.101731     -0.813036      0.075114
C      6.59456     15.36773     10.62556        -1.521738      0.408891      0.105865
C     14.38384      5.61067     10.62556         0.648876     -0.273095     -0.014864
C     14.38384     15.36773     10.35284        -0.431476      0.680889     -0.312549
C     10.40319      3.19606      7.29314         0.007717      0.842250     -0.295574
C     10.35913      4.25547      6.23373        -0.053386     -0.463412      0.512642
C      0.08601      7.29314      7.29314        -0.007043     -0.265307     -0.501448
C      0.13007      6.23373      6.23373         0.029797      0.138637      0.207813
C      0.08601      3.19606      3.19606        -0.011611      0.661271      0.198332
C      0.13007      4.25547      4.25547        -0.092239     -0.181558     -0.199475
C     10.40319      7.29314      3.19606        -0.007269     -0.655663      0.560990
C     10.35913      6.23373      4.25547        -0.042402      0.277705     -0.612307
C      7.29314     10.40319      3.19606        -0.331683      0.027713      0.934377
C      6.23373     10.35913      4.25547         0.175306      0.031033     -0.123643
C      7.29314      0.08601      7.29314        -0.310410     -0.038735     -0.297447
C      6.23373      0.13007      6.23373         0.335155     -0.051803      0.330725
C      3.19606      0.08601      3.19606         0.533959     -0.034008      0.704813
C      4.25547      0.13007      4.25547        -0.091428     -0.032859     -0.375925
C      3.19606     10.40319      7.29314         0.727116      0.001348     -0.405906
C      4.25547     10.35913      6.23373        -0.157832      0.031766      0.087934
C      3.19606      7.29314     10.40319         0.667272     -1.284435     -0.009337
C      4.25547      6.23373     10.35913        -0.646890      0.914657      0.084668
C      7.29314      7.29314      0.08601        -0.670075     -0.183306     -0.018718
C      6.23373      6.23373      0.13007         0.214157      0.205416      0.016194
C      3.19606      3.19606      0.08601         0.266593      0.291743     -0.020251
C      4.25547      4.25547      0.13007        -0.072326     -0.037185     -0.000496
C      7.29314      3.19606     10.40319        -0.362406      1.000691      0.017223
C      6.23373      4.25547     10.35913         1.062968     -0.027136      0.015166
O     10.43466      3.58206      8.50569        -0.043549      0.047237      0.386013
O     10.54374     17.39634      8.50569        -0.039061     -0.169908      0.582648
O     10.54374      3.58206     12.47271         0.050962      0.058149     -0.306554
O     10.43466     17.39634     12.47271        -0.010237     -0.137494     -0.627706
O      8.50569     10.43466      3.58206         0.356349     -0.027321     -0.028481
O      8.50569     10.54374     17.39634         0.472645      0.045035     -0.144715
O     12.47271     10.54374      3.58206        -0.485881      0.012706      0.084019
O     12.47271     10.43466     17.39634        -0.812037      0.002778     -0.194622
O      3.58206      8.50569     10.43466         0.112602      1.044950      0.017792
O     17.39634      8.50569     10.54374        -0.033417      0.314667      0.075013
O      3.58206     12.47271     10.54374         0.072747     -0.460414      0.052139
O     17.39634     12.47271     10.43466        -0.177193     -0.893082      0.056682
O      3.58206     10.43466      8.50569        -0.065923     -0.069567      0.323368
O     17.39634     10.54374      8.50569        -0.130890      0.042477      0.462294
O      3.58206     10.54374     12.47271         0.088684     -0.023826     -0.635225
O     17.39634     10.43466     12.47271        -0.183011      0.054563     -0.780397
O     10.43466      8.50569      3.58206         0.028710      0.651240      0.156857
O     10.54374      8.50569     17.39634         0.061907      0.449538     -0.083653
O     10.54374     12.47271      3.58206        -0.013496     -0.742961      0.232255
O     10.43466     12.47271     17.39634         0.034528     -0.852073     -0.239745
O      8.50569      3.58206     10.43466         0.443457      0.022748     -0.038513
O      8.50569     17.39634     10.54374         0.685913     -0.265019     -0.060876
O     12.47271      3.58206     10.54374        -0.461699      0.153157      0.043598
O     12.47271     17.39634     10.43466        -0.547559     -0.020546     -0.006684
O     11.90042     11.90042     19.56718        -0.293838     -0.313815      0.256902
O     19.56718     19.56718     19.56718         0.283291      0.264283      0.312180
O     19.56718     11.90042     11.90042         0.261202     -0.321706     -0.241512
O     11.90042     19.56718     11.90042        -0.271497      0.278975     -0.265002
O      9.45224      1.03696      9.45224        -0.082525      0.042068     -0.068652
O      1.03696      9.45224      9.45224         0.015677     -0.168053     -0.096782
O      1.03696      1.03696      1.03696         0.002456      0.069950      0.181694
O      9.45224      9.45224      1.03696        -0.062559     -0.098666      0.109524
Zr     10.48920      2.52580     10.48920         0.000843     -0.095132     -0.053504
Zr     10.48920     18.45260     10.48920         0.127031      0.348370     -0.003405
Zr     10.48920     10.48920      2.52580         0.014607     -0.040655     -0.398931
Zr     10.48920     10.48920     18.45260        -0.159096     -0.060161      0.378009
Zr      2.52580     10.48920     10.48920        -0.331369      0.244492     -0.124045
Zr     18.45260     10.48920     10.48920         0.277295     -0.013937     -0.282244
Pd      8.98839     10.13123     13.31422        -0.066185     -0.027018      0.035095
Pd     10.69231      9.70471     10.84514         0.000862     -0.036823     -0.131808
Pd     13.73113      8.41224     12.57506        -0.014619      0.056218      0.015080
Pd     11.00866     10.91398     14.97091        -0.033165     -0.025604      0.021130
Pd     12.90791     11.03429     12.96816         0.029957      0.057580      0.083068
Pd     15.09649     11.09630     11.31409        -0.023146     -0.038023     -0.002338
Pd      6.60519      7.70736     12.31926         0.003542      0.029136      0.015217
Pd      9.31717      7.30059      9.86615        -0.007393      0.004657     -0.026997
Pd      9.23322      7.47846     12.62795         0.015839     -0.000950     -0.028038
Pd     11.64240      7.16839     11.41477         0.007167      0.025917     -0.023723
Pd     11.69697      7.99882      8.89564         0.014386     -0.036305     -0.068298
Pd      7.37300     11.78058     11.78187        -0.037298      0.007849      0.006337
Pd      9.19237     14.74579      9.43888        -0.009056     -0.070589     -0.000793
Pd      8.39877     12.55556     14.26017        -0.037760     -0.009678      0.012356
Pd     14.09341     14.25415      8.31265         0.001568     -0.006991      0.002548
Pd     11.50146     13.64761      8.72852         0.031197     -0.026353      0.033070
Pd     14.16232     11.69546      8.88647        -0.035201     -0.013489      0.013213
Pd      8.71881     14.03730     12.07347        -0.013718     -0.002790      0.018449
Pd     12.27206     13.51247     14.14361        -0.009985      0.046816     -0.006244
Pd     11.34380     14.42233     11.44116         0.005540     -0.033750      0.002798
Pd     14.07602     13.60130     12.26749        -0.005048     -0.013927     -0.010622
Pd     12.42375     12.15996     10.72578        -0.016277     -0.096132      0.008289
Pd     12.75262     12.53139      6.67485        -0.008880      0.020798      0.006288
Pd     13.93306      9.00186      7.98437         0.000061     -0.009515     -0.036285
Pd      6.94200      8.50063      8.76261         0.007355     -0.008643     -0.013641
Pd      5.62576     10.10361     10.71586        -0.005003     -0.013792     -0.060728
Pd      9.39673      9.47283      8.10616        -0.009344     -0.026817     -0.097083
Pd      8.57081      7.03565      7.23616        -0.022013     -0.027070     -0.015742
Pd      9.76164     12.12787     10.36797        -0.005695     -0.034503      0.071777
Pd     11.63582     10.81963      8.47976        -0.002390     -0.000319     -0.054606
Pd     11.58482      9.09485      6.46067         0.020965     -0.011676     -0.038039
Pd     10.09373     11.34263      6.28918         0.015441     -0.019328     -0.107298
Ir     11.29515      9.01286     13.21367        -0.027714      0.037437     -0.050772
Ir     13.22185      9.61526     10.37536        -0.007881     -0.013646     -0.055041
Ir     10.55171     12.23082     12.74481        -0.007016     -0.020688      0.028683
Ir      7.60164     11.00843      9.25672         0.020378     -0.000354     -0.031624
Ir      8.88386     12.58702      8.07322         0.100724     -0.040898      0.013263
Ir      8.19752      9.31427     11.00724        -0.010371     -0.019369     -0.006770
