152
# total energy = -1060.16774528 eVH     10.35389      5.87395      7.64558        -0.306513      0.102660      1.082360
H     10.62451     15.10445      7.64558         0.099237     -0.070432      0.887801
H     10.62451      5.87395     13.33282        -0.272890      0.073967     -0.784534
H     10.35389     15.10445     13.33282         0.100571     -0.301317     -0.823889
H      7.64558     10.35389      5.87395         0.895057     -0.204559      0.207382
H      7.64558     10.62451     15.10445         0.314327     -0.026090     -0.063517
H     13.33282     10.62451      5.87395        -0.884386      0.219662      0.218778
H     13.33282     10.35389     15.10445        -0.283629     -0.030057     -0.058687
H      5.87395      7.64558     10.35389         0.093198      0.422999     -0.009228
H     15.10445      7.64558     10.62451        -0.046235      0.438503     -0.027703
H      5.87395     13.33282     10.62451        -0.014880     -0.972029      0.080216
H     15.10445     13.33282     10.35389        -0.090028     -0.329449      0.001339
H      5.87395     10.35389      7.64558         0.318289      0.061985      0.371810
H     15.10445     10.62451      7.64558        -0.118653     -0.156931      0.668653
H      5.87395     10.62451     13.33282        -0.063587      0.452751     -0.606035
H     15.10445     10.35389     13.33282         0.225573     -0.625403     -0.885270
H     10.35389      7.64558      5.87395        -0.018112      0.498813      0.344249
H     10.62451      7.64558     15.10445         0.325088      0.785349     -0.011214
H     10.62451     13.33282      5.87395         0.147356     -0.569013      0.203307
H     10.35389     13.33282     15.10445         0.033422     -0.293333     -0.164828
H      7.64558      5.87395     10.35389         0.370192      0.114357      0.062817
H      7.64558     15.10445     10.62451         0.389927     -0.127581      0.179974
H     13.33282      5.87395     10.62451        -0.306924      0.137341     -0.014503
H     13.33282     15.10445     10.35389        -0.656228     -0.110060      0.139688
H     12.45634     12.45634     19.01126         0.259553      0.272571     -0.225680
H     19.01126     19.01126     19.01126        -0.248318     -0.267029     -0.244016
H     19.01126     12.45634     12.45634        -0.248742      0.271754      0.236655
H     12.45634     19.01126     12.45634         0.290193     -0.234692      0.235511
C     10.35284      5.61067      6.59456         0.399478     -0.414346     -1.355820
C     10.62556     15.36773      6.59456        -0.175704      0.608743     -0.659426
C     10.62556      5.61067     14.38384         0.366204     -0.271780      0.782670
C     10.35284     15.36773     14.38384        -0.205471      0.229426      1.026882
C      6.59456     10.35284      5.61067        -1.392522      0.032304     -0.226082
C      6.59456     10.62556     15.36773        -0.664109      0.065270      0.356541
C     14.38384     10.62556      5.61067         1.314844     -0.186375     -0.630926
C     14.38384     10.35284     15.36773         0.320582     -0.133981      0.356814
C      5.61067      6.59456     10.35284        -0.273675     -0.671578     -0.031091
C     15.36773      6.59456     10.62556         0.409109     -0.851952      0.027093
C      5.61067     14.38384     10.62556        -0.149426      1.195878     -0.217815
C     15.36773     14.38384     10.35284         0.499049      0.708228     -0.037541
C      5.61067     10.35284      6.59456        -0.369075     -0.102944     -0.771207
C     15.36773     10.62556      6.59456         0.398786      0.108028     -0.674254
C      5.61067     10.62556     14.38384        -0.402788     -0.162834      1.221756
C     15.36773     10.35284     14.38384         0.224867      0.224245      1.406942
C     10.35284      6.59456      5.61067        -0.069216     -0.743137     -0.541152
C     10.62556      6.59456     15.36773        -0.139348     -0.977032      0.374033
C     10.62556     14.38384      5.61067        -0.495973      0.389575     -0.736961
C     10.35284     14.38384     15.36773        -0.172492      0.727320      0.490991
C      6.59456      5.61067     10.35284        -0.561163     -0.337029      0.003863
C      6.59456     15.36773     10.62556        -0.360094      0.444072      0.066232
C     14.38384      5.61067     10.62556         0.435696     -0.311043      0.007473
C     14.38384     15.36773     10.35284         1.127775      0.479916     -0.081332
C     10.40319      3.19606      7.29314        -0.008676      0.807698     -0.341971
C     10.35913      4.25547      6.23373         0.024786     -0.377488      0.295413
C      0.08601      7.29314      7.29314        -0.017837     -0.385118     -0.503167
C      0.13007      6.23373      6.23373        -0.047025      0.871834      0.093435
C      0.08601      3.19606      3.19606        -0.006551      0.696460      0.259332
C      0.13007      4.25547      4.25547         0.048352     -0.268157     -0.549135
C     10.40319      7.29314      3.19606        -0.063601     -1.111800      0.631356
C     10.35913      6.23373      4.25547        -0.048138      0.349087     -0.205106
C      7.29314     10.40319      3.19606        -1.090913     -0.054630      0.202440
C      6.23373     10.35913      4.25547         0.379276      0.102154     -0.525242
C      7.29314      0.08601      7.29314        -0.492699      0.028776     -0.432569
C      6.23373      0.13007      6.23373         0.179720      0.120721      0.118784
C      3.19606      0.08601      3.19606         0.701488      0.022514      0.170013
C      4.25547      0.13007      4.25547        -0.173797     -0.051982     -0.365175
C      3.19606     10.40319      7.29314         0.382305     -0.027268     -0.952950
C      4.25547     10.35913      6.23373        -0.129421     -0.053308      0.116236
C      3.19606      7.29314     10.40319         0.617775     -0.398677      0.002354
C      4.25547      6.23373     10.35913        -0.114163      0.178322      0.010065
C      7.29314      7.29314      0.08601        -0.429023     -0.292388     -0.014928
C      6.23373      6.23373      0.13007         0.146848      0.155136     -0.064663
C      3.19606      3.19606      0.08601         0.293927      0.493679     -0.024722
C      4.25547      4.25547      0.13007        -0.405887     -0.241484     -0.031044
C      7.29314      3.19606     10.40319        -0.283532      0.593866     -0.009091
C      6.23373      4.25547     10.35913         0.015983     -0.094445      0.015988
O     10.43466      3.58206      8.50569        -0.026221      0.067818      0.297447
O     10.54374     17.39634      8.50569         0.063497     -0.122002      0.586946
O     10.54374      3.58206     12.47271         0.029081      0.101686     -0.397588
O     10.43466     17.39634     12.47271         0.094424     -0.062113     -0.439884
O      8.50569     10.43466      3.58206         0.733517     -0.073357      0.017235
O      8.50569     10.54374     17.39634         0.548835      0.063928     -0.103407
O     12.47271     10.54374      3.58206        -0.657047      0.114082      0.211856
O     12.47271     10.43466     17.39634        -0.283606      0.003763      0.038096
O      3.58206      8.50569     10.43466         0.032922      0.443700     -0.064697
O     17.39634      8.50569     10.54374        -0.055264      0.446036      0.056668
O      3.58206     12.47271     10.54374         0.105290     -0.588012      0.003379
O     17.39634     12.47271     10.43466        -0.184600     -0.741874     -0.047204
O      3.58206     10.43466      8.50569         0.206767     -0.060050      0.804217
O     17.39634     10.54374      8.50569        -0.066959      0.070251      0.478014
O      3.58206     10.54374     12.47271        -0.004896     -0.004142     -0.261621
O     17.39634     10.43466     12.47271         0.032372     -0.009470     -0.235080
O     10.43466      8.50569      3.58206        -0.108223      0.533247     -0.099230
O     10.54374      8.50569     17.39634         0.060900      0.511813     -0.081660
O     10.54374     12.47271      3.58206         0.102958     -0.637636      0.129432
O     10.43466     12.47271     17.39634        -0.063882     -0.708897     -0.286418
O      8.50569      3.58206     10.43466         0.396322      0.023002     -0.047031
O      8.50569     17.39634     10.54374         0.639139     -0.153994      0.045907
O     12.47271      3.58206     10.54374        -0.515779      0.121293      0.028494
O     12.47271     17.39634     10.43466        -0.624203     -0.123047      0.041513
O     11.90042     11.90042     19.56718        -0.277933     -0.302470      0.222041
O     19.56718     19.56718     19.56718         0.309652      0.321886      0.297958
O     19.56718     11.90042     11.90042         0.283474     -0.324612     -0.235265
O     11.90042     19.56718     11.90042        -0.314384      0.229539     -0.201476
O      9.45224      1.03696      9.45224        -0.077238      0.091830     -0.076130
O      1.03696      9.45224      9.45224         0.104882     -0.111510     -0.059681
O      1.03696      1.03696      1.03696         0.078922      0.055575      0.098147
O      9.45224      9.45224      1.03696        -0.059496     -0.124793      0.137208
Zr     10.48920      2.52580     10.48920         0.042525     -0.097848      0.123395
Zr     10.48920     18.45260     10.48920        -0.181499      0.246703     -0.360992
Zr     10.48920     10.48920      2.52580         0.113762      0.354891     -0.344845
Zr     10.48920     10.48920     18.45260        -0.080623     -0.263514      0.234933
Zr      2.52580     10.48920     10.48920        -0.242059      0.128095      0.246266
Zr     18.45260     10.48920     10.48920         0.196743     -0.138433     -0.026899
Pd      9.36038     14.30750      9.30367         0.000426      0.027878     -0.023139
Pd      8.59490     13.64933     13.04908         0.012780     -0.013202      0.000823
Pd     12.02570     14.39746      8.75052         0.013251      0.007593      0.005833
Pd     12.74573     12.87686     10.69744        -0.042360      0.005659      0.037931
Pd     12.11996      7.18938     12.67542         0.000888     -0.005596      0.000711
Pd     11.15017     14.91254     11.44689        -0.021421      0.015318     -0.015896
Pd     10.02631     12.56219     11.07591        -0.031252      0.036950     -0.007763
Pd     13.48149     12.15535      7.98711         0.011340      0.004552      0.003553
Pd     11.48099     11.54638      6.10845         0.010768      0.010709     -0.015063
Pd      7.94097      8.37107      7.52043         0.005049     -0.021348      0.007536
Pd      8.71737     11.75884      6.84476        -0.009010     -0.000070     -0.015960
Pd     10.31689      9.45271      8.15411        -0.027342     -0.010049      0.017180
Pd      8.49331     14.46518      6.78531        -0.008520      0.006697     -0.016964
Pd     12.39391      9.02571      6.57789        -0.005819      0.021115      0.017913
Pd      9.71887      9.61234      5.57500         0.001049      0.003394      0.000484
Pd      6.82245      9.45724     12.14335         0.035548      0.009946      0.003514
Pd     12.18253      6.74803      7.95686         0.008656     -0.004788     -0.001062
Pd      5.91196     10.48222      9.69615        -0.003378     -0.008042      0.009148
Pd      7.54959      7.23713     13.40486         0.010938      0.004461     -0.014625
Ir     11.72698      9.77308     13.07030        -0.030091     -0.018535      0.011112
Ir     13.54663      9.05896     11.47929        -0.005931      0.008150      0.016240
Ir      9.41918      8.86757     14.01216        -0.024039      0.000632     -0.000006
Ir     10.50367     10.99810     14.91812        -0.002411     -0.060998      0.038991
Ir      7.26920     12.01510     11.34175         0.016474     -0.009048      0.028875
Ir     14.64210     10.92090     10.16414        -0.013362      0.025252      0.042696
Ir     12.16161     10.57473      9.67662        -0.000550     -0.012161     -0.012233
Ir      8.75959     11.01102     12.99180         0.036907      0.041418     -0.027920
Ir     10.10433      9.91955     11.16685        -0.018242      0.004423     -0.021359
Ir     13.71999     11.41830     12.50488        -0.035271      0.004150      0.075273
Ir     11.56134     12.34350     13.09793        -0.111257     -0.051706      0.018163
Ir      8.49594     11.09924      9.33287        -0.010108     -0.013199      0.008885
Ir     11.59425      8.02707     10.14654        -0.006755     -0.004176      0.008293
Ir      7.21871     13.03515      8.66031         0.018863      0.014889      0.011917
Ir      9.54924      6.96154      9.23818         0.003716      0.017840      0.008675
Ir      8.05154      8.76394     10.05634         0.010401      0.000648     -0.006982
Ir     10.72035     12.12269      8.49964        -0.013364     -0.000751     -0.003527
Ir      9.51456      7.57460     11.75549        -0.002406      0.022322     -0.008851
Ir     13.67066      8.80306      8.84742         0.026370      0.011096      0.032794
