20
# total energy = -167.56654366 eVC      8.01924      1.36171      7.50000         0.026531      0.028826      0.000000
C      1.41107     -0.17012      7.50000        -0.012352      0.089143     -0.000000
C      8.34810     -5.42742      7.50000         0.091448      0.001327      0.000000
C      0.87118      1.14670      7.50000        -0.026531     -0.028826      0.000000
C      7.47936      2.67853      7.50000         0.012352     -0.089143     -0.000000
C      0.54232      7.93583      7.50000        -0.091448     -0.001327      0.000000
C      7.70712     -4.18042      7.50000        -0.121100      0.141000     -0.000000
C      7.17364      0.24661      7.50000         0.237479      0.305727     -0.000000
C      2.78436     -0.45284      7.50000         0.065482     -0.004503     -0.000000
C      1.18330      6.68883      7.50000         0.121100     -0.141000     -0.000000
C      1.71678      2.26180      7.50000        -0.237479     -0.305727      0.000000
C      6.10606      2.96125      7.50000        -0.065482      0.004503      0.000000
N      6.77057     -3.45932      7.50000         0.043790     -0.063678     -0.000000
N      6.46957     -0.69262      7.50000        -0.242672     -0.323559      0.000000
N      3.73061     -1.15894      7.50000         0.012021     -0.035288     -0.000000
N      2.11985      5.96773      7.50000        -0.043790      0.063678      0.000000
N      2.42085      3.20103      7.50000         0.242672      0.323559     -0.000000
N      5.15981      3.66735      7.50000        -0.012021      0.035288      0.000000
Ir      5.25546     -2.30166      7.50000         0.043895      0.037762     -0.000000
Ir      3.63497      4.81007      7.50000        -0.043895     -0.037762      0.000000
