152
# total energy = -1005.63528068 eVH     10.35389      5.87395      7.64558         0.157701      0.101669      0.564315
H     10.62451     15.10445      7.64558        -0.114795     -0.148756      0.495613
H     10.62451      5.87395     13.33282         0.586876      0.092049     -0.791069
H     10.35389     15.10445     13.33282         0.030596     -0.160715     -0.416425
H      7.64558     10.35389      5.87395         0.353581      0.036809      0.165604
H      7.64558     10.62451     15.10445         0.856710      0.503986     -0.014742
H     13.33282     10.62451      5.87395        -0.443389      0.345934      0.114880
H     13.33282     10.35389     15.10445        -0.853023     -0.072515      0.014677
H      5.87395      7.64558     10.35389         0.308665      1.181121      0.035085
H     15.10445      7.64558     10.62451        -0.106456      0.484617      0.290249
H      5.87395     13.33282     10.62451         0.188782     -0.633827      0.011460
H     15.10445     13.33282     10.35389        -0.073748     -0.954376     -0.206271
H      5.87395     10.35389      7.64558         0.207667      0.046908      0.445943
H     15.10445     10.62451      7.64558        -0.139788      0.504538      0.778584
H      5.87395     10.62451     13.33282         0.096211      0.378101     -0.935386
H     15.10445     10.35389     13.33282        -0.072968     -0.034805     -0.655633
H     10.35389      7.64558      5.87395         0.336212      1.146388      0.057091
H     10.62451      7.64558     15.10445         0.708037      0.663459     -0.203989
H     10.62451     13.33282      5.87395        -0.398781     -0.802186      0.264615
H     10.35389     13.33282     15.10445        -0.094911     -0.468220     -0.284723
H      7.64558      5.87395     10.35389         0.877976      0.052911     -0.226082
H      7.64558     15.10445     10.62451         0.809094     -0.181417      0.022899
H     13.33282      5.87395     10.62451        -0.733020      0.174817      0.525020
H     13.33282     15.10445     10.35389        -0.378966     -0.117294     -0.096629
H     12.45634     12.45634     19.01126         0.245340      0.270746     -0.233854
H     19.01126     19.01126     19.01126        -0.272065     -0.248140     -0.243803
H     19.01126     12.45634     12.45634        -0.276113      0.263827      0.221369
H     12.45634     19.01126     12.45634         0.235971     -0.263304      0.272405
C     10.35284      5.61067      6.59456        -0.324064     -0.718213     -0.070257
C     10.62556     15.36773      6.59456         0.071808      0.354423     -0.254668
C     10.62556      5.61067     14.38384        -0.153731     -0.509154      0.124735
C     10.35284     15.36773     14.38384         0.014653      0.202372      0.374406
C      6.59456     10.35284      5.61067        -0.386935      0.012269     -0.255702
C      6.59456     10.62556     15.36773        -0.565248      0.035849      0.626566
C     14.38384     10.62556      5.61067        -0.243888     -0.468194     -0.661594
C     14.38384     10.35284     15.36773         1.041550     -0.087441      0.179728
C      5.61067      6.59456     10.35284        -0.715267     -0.211459     -0.358321
C     15.36773      6.59456     10.62556         0.544684      0.006966     -0.323399
C      5.61067     14.38384     10.62556        -0.257426      0.744133     -0.006985
C     15.36773     14.38384     10.35284         0.293466      0.962238      0.032412
C      5.61067     10.35284      6.59456        -0.290165     -0.004789     -0.750651
C     15.36773     10.62556      6.59456         0.486258     -0.270112      0.188285
C      5.61067     10.62556     14.38384        -0.635930     -0.083037      0.317806
C     15.36773     10.35284     14.38384         0.429302     -0.038072      1.017541
C     10.35284      6.59456      5.61067        -0.160779     -0.741013     -0.565718
C     10.62556      6.59456     15.36773        -0.102412     -0.343932      0.595382
C     10.62556     14.38384      5.61067         0.203633      1.119602     -0.365853
C     10.35284     14.38384     15.36773        -0.003303      0.815324      0.388798
C      6.59456      5.61067     10.35284         0.050874     -1.060204      0.217116
C      6.59456     15.36773     10.62556        -0.978938      0.229434      0.082846
C     14.38384      5.61067     10.62556         0.327249     -0.547027     -0.368891
C     14.38384     15.36773     10.35284         0.144169      0.394696     -0.077637
C     10.40319      3.19606      7.29314         0.006441      0.838562     -0.459832
C     10.35913      4.25547      6.23373         0.068138     -0.555877      0.095500
C      0.08601      7.29314      7.29314        -0.044802     -0.732468     -0.251640
C      0.13007      6.23373      6.23373        -0.039777      0.168487      0.497917
C      0.08601      3.19606      3.19606         0.015971      1.410094      0.270288
C      0.13007      4.25547      4.25547         0.027210     -0.672380     -0.224713
C     10.40319      7.29314      3.19606         0.004613     -0.331852      0.271297
C     10.35913      6.23373      4.25547         0.028007      0.028800     -0.730613
C      7.29314     10.40319      3.19606        -0.253017      0.017983      0.549010
C      6.23373     10.35913      4.25547         0.146079      0.045941     -0.062770
C      7.29314      0.08601      7.29314        -0.756188     -0.075736     -0.314329
C      6.23373      0.13007      6.23373         0.784083     -0.151961      0.427469
C      3.19606      0.08601      3.19606         0.952815     -0.021292      0.583675
C      4.25547      0.13007      4.25547        -0.551767     -0.076178     -0.615773
C      3.19606     10.40319      7.29314         0.533171     -0.008759     -0.755195
C      4.25547     10.35913      6.23373        -0.273714      0.067961      0.214212
C      3.19606      7.29314     10.40319         0.286199     -1.282707      0.031028
C      4.25547      6.23373     10.35913        -1.033316      0.019808      0.113056
C      7.29314      7.29314      0.08601        -0.431880     -0.415879     -0.015694
C      6.23373      6.23373      0.13007         0.519225      0.236686      0.009437
C      3.19606      3.19606      0.08601         0.454297      0.366998     -0.035561
C      4.25547      4.25547      0.13007        -0.133372     -0.594455     -0.043244
C      7.29314      3.19606     10.40319        -0.372255      0.433402      0.056899
C      6.23373      4.25547     10.35913         0.260597     -0.735252      0.135695
O     10.43466      3.58206      8.50569        -0.013380      0.060131      0.456309
O     10.54374     17.39634      8.50569         0.059969     -0.099280      0.381308
O     10.54374      3.58206     12.47271         0.028208     -0.120795     -0.150978
O     10.43466     17.39634     12.47271        -0.029526     -0.170205     -0.518825
O      8.50569     10.43466      3.58206         0.268899     -0.022333      0.010043
O      8.50569     10.54374     17.39634         0.744549     -0.029987     -0.172608
O     12.47271     10.54374      3.58206        -0.817752      0.098592      0.086855
O     12.47271     10.43466     17.39634        -0.473266      0.033207     -0.081636
O      3.58206      8.50569     10.43466         0.160489      1.064358     -0.029484
O     17.39634      8.50569     10.54374        -0.158343      0.578814      0.069989
O      3.58206     12.47271     10.54374         0.103670     -0.434560      0.042792
O     17.39634     12.47271     10.43466        -0.147119     -0.542554     -0.029853
O      3.58206     10.43466      8.50569         0.075684     -0.088542      0.612358
O     17.39634     10.54374      8.50569        -0.051383      0.087774      0.446220
O      3.58206     10.54374     12.47271         0.004457      0.033307     -0.489961
O     17.39634     10.43466     12.47271        -0.235178     -0.044721     -0.653261
O     10.43466      8.50569      3.58206        -0.038462      0.449909      0.139991
O     10.54374      8.50569     17.39634        -0.041511      0.666931     -0.203184
O     10.54374     12.47271      3.58206         0.039635     -1.009065      0.112102
O     10.43466     12.47271     17.39634         0.055330     -0.795455     -0.209440
O      8.50569      3.58206     10.43466         0.562909      0.155039     -0.055433
O      8.50569     17.39634     10.54374         0.521623     -0.182697      0.003165
O     12.47271      3.58206     10.54374        -0.605944      0.195674      0.002448
O     12.47271     17.39634     10.43466        -0.246397      0.065212     -0.044392
O     11.90042     11.90042     19.56718        -0.259871     -0.303173      0.232922
O     19.56718     19.56718     19.56718         0.323214      0.295900      0.260065
O     19.56718     11.90042     11.90042         0.314127     -0.261259     -0.236642
O     11.90042     19.56718     11.90042        -0.237298      0.302135     -0.325684
O      9.45224      1.03696      9.45224         0.001253      0.074450     -0.121140
O      1.03696      9.45224      9.45224         0.088483     -0.072188     -0.159449
O      1.03696      1.03696      1.03696         0.112703      0.170067      0.030565
O      9.45224      9.45224      1.03696        -0.095670     -0.111385      0.017187
Zr     10.48920      2.52580     10.48920        -0.100073     -0.231146     -0.014059
Zr     10.48920     18.45260     10.48920        -0.097805      0.187105      0.154797
Zr     10.48920     10.48920      2.52580        -0.112774     -0.434315     -0.216375
Zr     10.48920     10.48920     18.45260        -0.180702     -0.016042      0.407926
Zr      2.52580     10.48920     10.48920        -0.350499      0.269314      0.278071
Zr     18.45260     10.48920     10.48920         0.170802      0.007478     -0.127710
Pd     13.62700      8.94854      9.15597        -0.010944     -0.002222      0.019611
Pd      5.70639      9.76071     10.02785        -0.008780      0.028605      0.003196
Pd      6.81441     11.54397     11.70209        -0.011340      0.041286     -0.029643
Pd     12.19195     13.10232      7.33066        -0.005709      0.001549      0.005051
Pd     12.06695      7.86925      7.23059        -0.024668     -0.007727      0.031903
Pd      8.29252      7.05233      6.56856        -0.001277     -0.005583      0.009489
Pd     10.89280     11.27906      5.57764        -0.003209     -0.006189      0.007983
Pd     14.61459      8.53181      6.71287        -0.021486     -0.001586      0.014751
Pd      9.65203     11.80049      7.99651        -0.006320     -0.002898      0.005231
Pd      6.75053      6.78092     12.28413         0.062678      0.029999     -0.003979
Pd      6.37875      7.60178      8.26994        -0.003868      0.007853      0.001648
Pd      6.91187      8.75486     13.99460        -0.038671     -0.027525      0.044489
Pd     11.59471      6.54027      9.54705        -0.023735     -0.004308      0.023067
Pd      9.73381      9.29392      6.90658        -0.009753     -0.000735      0.022534
Pd      9.01791     13.96520      9.39885         0.003480      0.005688     -0.004570
Pd      9.89800      7.15412     11.59466        -0.103727      0.036362      0.039613
Pd     10.51867      8.97305      9.56739         0.000526     -0.009213      0.019769
Pd      9.34267     11.30922     10.60160        -0.011182      0.029731     -0.002997
Pd      8.87537      7.00788      9.13998         0.008382     -0.014390      0.000880
Pd      8.71717      6.80539     13.98505        -0.017378     -0.015602      0.051265
Pd      7.96397      9.04458     11.50412        -0.068870      0.075829      0.107000
Pd     11.96332     10.50644      7.83567         0.003037     -0.003006      0.003367
Pd      7.13522     12.05646      9.11133         0.002434     -0.009782     -0.009297
Pd      8.03013      9.58940      8.83968        -0.000862     -0.000027      0.065453
Pd     14.13477      6.48911      8.45775        -0.015912     -0.005829      0.009625
Pd     12.51457      8.25216     11.48236        -0.021046      0.003642      0.010717
Pd      8.78903     11.38329     13.42016        -0.016404      0.029539     -0.012052
Pd     13.90290     11.92878      9.03640         0.001719     -0.003895     -0.006225
Pd     12.87546     10.57658     13.09229         0.001577      0.006637     -0.007597
Pd     14.73349     10.33501     11.13970         0.007454      0.003925     -0.006237
Pd     12.05825     10.74064     10.58619         0.013606      0.015080     -0.014310
Pd     11.44759     13.15585      9.85933         0.005185      0.019643      0.002150
Pd     13.56457     12.82222     11.66529         0.004152      0.009304      0.003489
Pd     11.04008     12.53042     12.44478        -0.000300      0.011144      0.000422
Pd     11.07040     11.33554     14.87697        -0.025459     -0.019309     -0.018472
Pd     10.46646      9.57337     12.52510        -0.000286      0.020456     -0.029423
Pd      9.41582      9.27264     14.90481        -0.051117     -0.033453     -0.059742
Pd      8.66203     13.58221     11.99743         0.017308      0.034403     -0.006431
