152
# total energy = -1061.38487401 eVH     10.35389      5.87395      7.64558        -0.140472      0.130937      0.990486
H     10.62451     15.10445      7.64558         0.249717     -0.078980      0.833992
H     10.62451      5.87395     13.33282        -0.142031      0.084779     -0.503660
H     10.35389     15.10445     13.33282         0.073489     -0.218440     -0.421116
H      7.64558     10.35389      5.87395         0.868756      0.108970      0.206979
H      7.64558     10.62451     15.10445         0.191624     -0.005163     -0.063877
H     13.33282     10.62451      5.87395        -0.641397     -0.017414      0.172940
H     13.33282     10.35389     15.10445        -0.327971     -0.079782     -0.054806
H      5.87395      7.64558     10.35389         0.138797      0.361949     -0.040822
H     15.10445      7.64558     10.62451        -0.133116      0.586949      0.253867
H      5.87395     13.33282     10.62451         0.130948     -0.562075      0.024038
H     15.10445     13.33282     10.35389        -0.239791     -0.440488      0.099234
H      5.87395     10.35389      7.64558         0.194342      0.201870      0.375300
H     15.10445     10.62451      7.64558        -0.172328     -0.199830      0.531045
H      5.87395     10.62451     13.33282         0.032521      0.131097     -0.724393
H     15.10445     10.35389     13.33282         0.088696     -0.279588     -0.720479
H     10.35389      7.64558      5.87395        -0.093875      0.434203      0.249115
H     10.62451      7.64558     15.10445         0.419174      0.696143     -0.103130
H     10.62451     13.33282      5.87395         0.220872     -0.582978      0.115533
H     10.35389     13.33282     15.10445         0.176826     -0.689634     -0.075066
H      7.64558      5.87395     10.35389         0.440373      0.156770     -0.072291
H      7.64558     15.10445     10.62451         0.448435     -0.168718      0.353204
H     13.33282      5.87395     10.62451        -0.364131      0.150376     -0.054248
H     13.33282     15.10445     10.35389        -0.551610     -0.251410      0.143584
H     12.45634     12.45634     19.01126         0.238358      0.264720     -0.242033
H     19.01126     19.01126     19.01126        -0.257506     -0.264483     -0.227480
H     19.01126     12.45634     12.45634        -0.232207      0.269172      0.241979
H     12.45634     19.01126     12.45634         0.285095     -0.211053      0.247916
C     10.35284      5.61067      6.59456         0.300998     -0.291839     -0.886851
C     10.62556     15.36773      6.59456        -0.181673      0.661902     -0.354699
C     10.62556      5.61067     14.38384         0.269752     -0.340030      0.512093
C     10.35284     15.36773     14.38384        -0.126441      0.262981      0.339911
C      6.59456     10.35284      5.61067        -0.812870     -0.145125     -0.214470
C      6.59456     10.62556     15.36773        -0.554436      0.059877      0.349667
C     14.38384     10.62556      5.61067         0.936646     -0.018718     -0.557508
C     14.38384     10.35284     15.36773         0.273538     -0.089179      0.369912
C      5.61067      6.59456     10.35284        -0.378009     -0.447068      0.043156
C     15.36773      6.59456     10.62556         0.274974     -0.684720     -0.143036
C      5.61067     14.38384     10.62556        -0.176004      0.573591     -0.264728
C     15.36773     14.38384     10.35284         0.387241      0.817729     -0.117284
C      5.61067     10.35284      6.59456        -0.264950     -0.131322     -0.183925
C     15.36773     10.62556      6.59456         0.214059      0.191993     -0.440258
C      5.61067     10.62556     14.38384        -0.359311     -0.022235      1.229216
C     15.36773     10.35284     14.38384         0.281921     -0.041777      0.986184
C     10.35284      6.59456      5.61067         0.048864     -0.307921     -0.455120
C     10.62556      6.59456     15.36773        -0.037156     -0.876915      0.257243
C     10.62556     14.38384      5.61067        -0.401856      0.016246     -0.804213
C     10.35284     14.38384     15.36773        -0.230555      0.902917      0.231623
C      6.59456      5.61067     10.35284        -0.395700     -0.284916      0.188611
C      6.59456     15.36773     10.62556        -0.518019      0.545386      0.021950
C     14.38384      5.61067     10.62556         0.412274     -0.317625      0.068973
C     14.38384     15.36773     10.35284         0.844312      0.279146     -0.065479
C     10.40319      3.19606      7.29314         0.000204      0.608733     -0.318262
C     10.35913      4.25547      6.23373        -0.000527     -0.483632      0.422584
C      0.08601      7.29314      7.29314        -0.020096     -0.851771     -0.477258
C      0.13007      6.23373      6.23373        -0.154927      0.858563      0.139411
C      0.08601      3.19606      3.19606        -0.012369      0.369728      0.377686
C      0.13007      4.25547      4.25547         0.066279     -0.167159     -0.638099
C     10.40319      7.29314      3.19606        -0.047316     -1.097670      0.853303
C     10.35913      6.23373      4.25547         0.012829      0.337726     -0.180778
C      7.29314     10.40319      3.19606        -1.104342     -0.073022      0.360345
C      6.23373     10.35913      4.25547         0.276068      0.028996     -0.626932
C      7.29314      0.08601      7.29314        -0.946574     -0.003010     -0.407973
C      6.23373      0.13007      6.23373         0.227797      0.027822      0.119664
C      3.19606      0.08601      3.19606         0.331841     -0.003927      0.384138
C      4.25547      0.13007      4.25547        -0.279053     -0.046140     -0.163146
C      3.19606     10.40319      7.29314         0.493447     -0.047416     -1.062643
C      4.25547     10.35913      6.23373        -0.297989     -0.053402      0.123299
C      3.19606      7.29314     10.40319         0.891702     -0.505052      0.010021
C      4.25547      6.23373     10.35913        -0.134965      0.164131     -0.000950
C      7.29314      7.29314      0.08601        -0.419169     -0.274269     -0.005784
C      6.23373      6.23373      0.13007         0.241513      0.072747     -0.139796
C      3.19606      3.19606      0.08601         0.333790      0.712336     -0.009603
C      4.25547      4.25547      0.13007        -0.386558     -0.216911      0.052520
C      7.29314      3.19606     10.40319        -0.211615      0.559412      0.020630
C      6.23373      4.25547     10.35913         0.042787     -0.273511      0.016378
O     10.43466      3.58206      8.50569        -0.019959      0.121902      0.349272
O     10.54374     17.39634      8.50569         0.058322      0.046909      0.308904
O     10.54374      3.58206     12.47271         0.042021      0.200126     -0.569348
O     10.43466     17.39634     12.47271         0.031221     -0.008017     -0.455954
O      8.50569     10.43466      3.58206         0.734162     -0.073064      0.059695
O      8.50569     10.54374     17.39634         0.917006      0.029107     -0.162078
O     12.47271     10.54374      3.58206        -0.347137      0.044689      0.067724
O     12.47271     10.43466     17.39634        -0.353149     -0.027248      0.061767
O      3.58206      8.50569     10.43466        -0.043057      0.374957     -0.082346
O     17.39634      8.50569     10.54374        -0.116606      0.432412      0.033877
O      3.58206     12.47271     10.54374         0.131250     -0.721257     -0.011479
O     17.39634     12.47271     10.43466        -0.249233     -0.667554     -0.013338
O      3.58206     10.43466      8.50569         0.131336     -0.042398      0.822453
O     17.39634     10.54374      8.50569         0.038202      0.044398      0.286415
O      3.58206     10.54374     12.47271         0.071039      0.019192     -0.447416
O     17.39634     10.43466     12.47271        -0.004019      0.017353     -0.307453
O     10.43466      8.50569      3.58206        -0.067381      0.574405     -0.086553
O     10.54374      8.50569     17.39634         0.022596      0.872945     -0.193466
O     10.54374     12.47271      3.58206         0.059979     -0.363067      0.088813
O     10.43466     12.47271     17.39634        -0.062154     -0.664741     -0.206339
O      8.50569      3.58206     10.43466         0.341006      0.065310     -0.052565
O      8.50569     17.39634     10.54374         0.506718     -0.134317      0.011771
O     12.47271      3.58206     10.54374        -0.394390      0.088162      0.027440
O     12.47271     17.39634     10.43466        -0.711314     -0.101379      0.063209
O     11.90042     11.90042     19.56718        -0.249837     -0.279706      0.228196
O     19.56718     19.56718     19.56718         0.289194      0.301419      0.245628
O     19.56718     11.90042     11.90042         0.233271     -0.298460     -0.287670
O     11.90042     19.56718     11.90042        -0.282714      0.179145     -0.258582
O      9.45224      1.03696      9.45224        -0.120851      0.112271     -0.084258
O      1.03696      9.45224      9.45224         0.147785     -0.133394     -0.164828
O      1.03696      1.03696      1.03696         0.138681      0.200724     -0.010560
O      9.45224      9.45224      1.03696        -0.212308     -0.166690      0.046651
Zr     10.48920      2.52580     10.48920         0.013935     -0.244688      0.182220
Zr     10.48920     18.45260     10.48920        -0.253573      0.256755     -0.238407
Zr     10.48920     10.48920      2.52580         0.282395      0.449959     -0.217842
Zr     10.48920     10.48920     18.45260         0.041824     -0.036302      0.505173
Zr      2.52580     10.48920     10.48920        -0.545347      0.061308      0.356306
Zr     18.45260     10.48920     10.48920         0.270938     -0.161058      0.031788
Pd      9.08960     14.49892      9.20917         0.030497     -0.016458     -0.027667
Pd      8.37465     13.25351     13.75446         0.003229     -0.030426      0.048110
Pd     11.99895     14.21378      8.75446         0.043742     -0.054739     -0.025809
Pd     12.29466     12.75725     10.90632        -0.092273      0.051671     -0.059977
Pd     11.85675      7.10403     12.06074        -0.026328     -0.028279     -0.016791
Pd     11.00714     15.30472     10.99677         0.053749     -0.005879      0.000631
Pd      9.62443     13.06553     11.41773         0.043623      0.040481      0.003415
Pd     13.96869     12.50863      8.17697        -0.009593     -0.033762      0.007039
Pd     11.66327     11.72689      6.79448         0.016269      0.039948      0.046813
Pd      7.54489      8.50760      7.25308        -0.015664     -0.013063      0.018751
Pd      8.72589     11.96776      6.89204         0.014998      0.017618     -0.017158
Pd      9.82156      9.82792      8.05264         0.038483     -0.077721      0.000611
Pd      8.48903     14.61782      6.55212         0.017538     -0.000404     -0.001462
Pd     12.15711      9.03387      6.93496        -0.007744     -0.003390     -0.016678
Pd     10.04495      9.97238      5.42788        -0.037877     -0.033860      0.030919
Pd      6.93539      9.16602     12.23082        -0.009554     -0.004808     -0.046540
Pd     12.43324      6.52042      7.79854        -0.018447     -0.031297     -0.010945
Pd      5.61553     10.57773     10.05256         0.049241      0.036793      0.033915
Pd      7.66073      6.64153     12.88823        -0.000521      0.046579     -0.079694
Ir     11.29245      9.57665     12.95266         0.178094     -0.069428     -0.091871
Ir     13.10861      9.24489     11.21852        -0.078375     -0.021030      0.034195
Ir      9.16603      8.46838     13.87455        -0.009783     -0.039039     -0.065613
Ir     10.24933     10.43764     15.15507         0.026156     -0.004730      0.032739
Ir      7.09315     11.83827     11.81729        -0.033978      0.014499     -0.030339
Ir     14.50101     11.12651     10.42516        -0.013208      0.044279     -0.033672
Ir     12.35819     10.59430      9.15256        -0.079795      0.049645     -0.045317
Ir      8.92534     10.80813     12.94628        -0.068127      0.049481     -0.053179
Ir     10.06090     10.26645     10.69588        -0.027310     -0.019609     -0.066870
Ir     13.30537     11.26818     12.67992         0.056845     -0.063452      0.048330
Ir     11.10116     12.06041     13.40810        -0.013159      0.141058     -0.028608
Ir      7.99884     11.66537      9.50780        -0.118034     -0.002793      0.030913
Ir     11.36035      8.13587      9.58350        -0.133826      0.000336      0.000807
Ir      6.93351     13.37539      8.21412         0.021647      0.020368      0.070417
Ir      9.15895      7.24596      8.89572         0.029946      0.059506      0.043847
Ir      7.81711      9.15202      9.77772         0.010642      0.024255     -0.028267
Ir     10.40606     12.26178      8.99468         0.100249      0.112221      0.008402
Ir      9.37872      7.87536     11.37082         0.005233     -0.012787     -0.061010
Ir     13.81991      8.45575      8.92817        -0.028382     -0.035471     -0.074744
