152
# total energy = -1110.22224745 eVH     10.35389      5.87395      7.64558        -0.362140     -0.296212      1.104867
H     10.62451     15.10445      7.64558         0.438614      0.091947      0.973781
H     10.62451      5.87395     13.33282        -0.236302     -0.940970     -1.555350
H     10.35389     15.10445     13.33282        -0.633723      0.332083     -0.408245
H      7.64558     10.35389      5.87395         0.508775     -0.579756     -0.044221
H      7.64558     10.62451     15.10445         0.329590     -0.257595      0.037937
H     13.33282     10.62451      5.87395        -0.449701      0.479319      0.006459
H     13.33282     10.35389     15.10445        -0.499926      0.362791      0.122118
H      5.87395      7.64558     10.35389         0.103980      0.420409      0.032715
H     15.10445      7.64558     10.62451         0.400309      0.496000      0.227448
H      5.87395     13.33282     10.62451        -0.255348     -0.409890      0.386597
H     15.10445     13.33282     10.35389         0.033611     -0.364255     -0.408918
H      5.87395     10.35389      7.64558        -0.067443     -0.282617      1.499878
H     15.10445     10.62451      7.64558         0.168542      0.216278      1.082874
H      5.87395     10.62451     13.33282        -0.094635     -0.313279     -1.073461
H     15.10445     10.35389     13.33282         0.310838      0.610968     -1.310472
H     10.35389      7.64558      5.87395        -0.499570      0.526414     -0.261960
H     10.62451      7.64558     15.10445        -0.087026      0.673875      0.258707
H     10.62451     13.33282      5.87395         0.915840     -1.418513     -0.334471
H     10.35389     13.33282     15.10445         0.319037     -0.530825     -0.030600
H      7.64558      5.87395     10.35389         0.826439      0.146320     -0.133877
H      7.64558     15.10445     10.62451         2.001386      0.852892      0.209368
H     13.33282      5.87395     10.62451        -2.552139     -0.996900     -0.304824
H     13.33282     15.10445     10.35389        -0.837187     -0.030896     -0.246802
H     12.45634     12.45634     19.01126         0.271022      0.256148     -0.230185
H     19.01126     19.01126     19.01126        -0.267507     -0.252588     -0.238414
H     19.01126     12.45634     12.45634        -0.280876      0.282484      0.189072
H     12.45634     19.01126     12.45634         0.257727     -0.252359      0.235953
C     10.35284      5.61067      6.59456         0.155816     -0.446632     -1.461116
C     10.62556     15.36773      6.59456         0.132838      0.721845     -0.884026
C     10.62556      5.61067     14.38384         0.100145     -0.323408      1.975604
C     10.35284     15.36773     14.38384         0.157178      0.334017      1.799835
C      6.59456     10.35284      5.61067        -1.143860     -0.141028     -0.894703
C      6.59456     10.62556     15.36773        -0.629923     -0.126000      0.674058
C     14.38384     10.62556      5.61067         0.776129     -0.132374     -0.851652
C     14.38384     10.35284     15.36773         1.135571      0.147359      0.972609
C      5.61067      6.59456     10.35284        -0.787409     -0.713690     -0.143755
C     15.36773      6.59456     10.62556         1.959335     -0.004520     -0.124650
C      5.61067     14.38384     10.62556        -1.594234      0.079092     -0.048989
C     15.36773     14.38384     10.35284         0.446427      0.073369      0.050384
C      5.61067     10.35284      6.59456        -0.311084      0.235894     -1.514182
C     15.36773     10.62556      6.59456         0.281776     -0.071367     -0.943305
C      5.61067     10.62556     14.38384        -0.334396      0.295609      1.424599
C     15.36773     10.35284     14.38384         0.113410     -0.362685      1.682320
C     10.35284      6.59456      5.61067        -0.246219     -1.124725     -0.848662
C     10.62556      6.59456     15.36773        -0.059497     -0.960026      1.117968
C     10.62556     14.38384      5.61067        -0.435898      2.069033     -0.781684
C     10.35284     14.38384     15.36773        -0.298659      1.564614      0.401998
C      6.59456      5.61067     10.35284        -1.000041     -0.387944      0.069923
C      6.59456     15.36773     10.62556        -1.457286      0.317449     -0.339827
C     14.38384      5.61067     10.62556         1.307643     -0.725697      0.052550
C     14.38384     15.36773     10.35284         0.338520      0.279218      0.042402
C     10.40319      3.19606      7.29314         0.015096      0.297592     -0.106475
C     10.35913      4.25547      6.23373         0.127552     -0.452316      0.118100
C      0.08601      7.29314      7.29314        -0.054454     -0.324294     -0.433679
C      0.13007      6.23373      6.23373        -0.154044      0.810242      0.035736
C      0.08601      3.19606      3.19606        -0.114311      1.533362      0.169043
C      0.13007      4.25547      4.25547        -0.108306     -0.389205     -1.344328
C     10.40319      7.29314      3.19606         0.029797     -0.451990      0.116980
C     10.35913      6.23373      4.25547         0.249298      0.114951     -0.421645
C      7.29314     10.40319      3.19606        -1.675715      0.017840      0.284732
C      6.23373     10.35913      4.25547         0.587109      0.061889     -0.570601
C      7.29314      0.08601      7.29314        -0.384430      0.000063     -0.274401
C      6.23373      0.13007      6.23373         0.476880     -0.029120      0.321098
C      3.19606      0.08601      3.19606         0.666461     -0.003985      0.247833
C      4.25547      0.13007      4.25547        -0.386577     -0.025924     -0.437660
C      3.19606     10.40319      7.29314         0.393312      0.035618     -0.360458
C      4.25547     10.35913      6.23373        -0.690458      0.065446      0.403146
C      3.19606      7.29314     10.40319         0.338382     -0.269546     -0.006405
C      4.25547      6.23373     10.35913         0.042411      0.649547      0.101581
C      7.29314      7.29314      0.08601        -0.695074     -0.500327     -0.016910
C      6.23373      6.23373      0.13007         0.492867      1.217077     -0.059898
C      3.19606      3.19606      0.08601         0.796464      0.442402      0.009547
C      4.25547      4.25547      0.13007        -0.336770     -1.591099     -0.096937
C      7.29314      3.19606     10.40319        -0.344165      0.276895      0.000388
C      6.23373      4.25547     10.35913         0.577200     -0.091546      0.240028
O     10.43466      3.58206      8.50569        -0.045041      0.188817      0.271395
O     10.54374     17.39634      8.50569         0.042261     -0.225737      0.481242
O     10.54374      3.58206     12.47271         0.091339     -0.023053     -0.075010
O     10.43466     17.39634     12.47271        -0.031267     -0.117177     -0.255128
O      8.50569     10.43466      3.58206         0.937412      0.182532      0.395483
O      8.50569     10.54374     17.39634         0.555761      0.079300     -0.218806
O     12.47271     10.54374      3.58206        -0.495088     -0.030933      0.195802
O     12.47271     10.43466     17.39634        -0.535648     -0.070047     -0.196621
O      3.58206      8.50569     10.43466         0.169766      0.475544     -0.037171
O     17.39634      8.50569     10.54374        -0.204415      0.678443      0.041641
O      3.58206     12.47271     10.54374         0.151698     -0.629463      0.024592
O     17.39634     12.47271     10.43466        -0.180283     -0.489148     -0.017844
O      3.58206     10.43466      8.50569         0.215647     -0.068607      0.422464
O     17.39634     10.54374      8.50569        -0.163956      0.033331      0.416081
O      3.58206     10.54374     12.47271         0.135159      0.012749     -0.341046
O     17.39634     10.43466     12.47271         0.066624     -0.064483     -0.093958
O     10.43466      8.50569      3.58206         0.004738      0.327847      0.183406
O     10.54374      8.50569     17.39634         0.070755      0.444329     -0.192851
O     10.54374     12.47271      3.58206        -0.221102     -0.911635      0.352215
O     10.43466     12.47271     17.39634        -0.083272     -0.433361     -0.239392
O      8.50569      3.58206     10.43466         0.510035      0.197332     -0.016269
O      8.50569     17.39634     10.54374         0.630327     -0.190346      0.030546
O     12.47271      3.58206     10.54374        -0.720094      0.280824      0.040129
O     12.47271     17.39634     10.43466        -0.464810     -0.190151     -0.040846
O     11.90042     11.90042     19.56718        -0.339044     -0.303885      0.262232
O     19.56718     19.56718     19.56718         0.330092      0.306155      0.283275
O     19.56718     11.90042     11.90042         0.283559     -0.287188     -0.140291
O     11.90042     19.56718     11.90042        -0.314743      0.293120     -0.233501
O      9.45224      1.03696      9.45224        -0.049168      0.072464     -0.044780
O      1.03696      9.45224      9.45224         0.036196     -0.071215     -0.069247
O      1.03696      1.03696      1.03696         0.043227      0.120839      0.123271
O      9.45224      9.45224      1.03696        -0.107806     -0.074042      0.129621
Zr     10.48920      2.52580     10.48920         0.101423     -0.157789     -0.158570
Zr     10.48920     18.45260     10.48920        -0.065932      0.172666     -0.038657
Zr     10.48920     10.48920      2.52580         0.338794     -0.280796     -0.217840
Zr     10.48920     10.48920     18.45260        -0.011508     -0.071389      0.200020
Zr      2.52580     10.48920     10.48920        -0.053031      0.133235     -0.050536
Zr     18.45260     10.48920     10.48920         0.105963     -0.107206     -0.260784
Ir     12.04278     12.45317     10.44789         0.016848      0.015223     -0.005324
Ir     10.96831      7.38648     10.39295         0.053736      0.013273     -0.025356
Ir      8.61569      7.45865     11.64014         0.052212     -0.016810     -0.015306
Ir      7.44264     11.74026      7.64422         0.009510     -0.026547      0.001409
Ir     11.54715     12.08967      7.13309         0.020330      0.000000     -0.005808
Ir     13.56197      8.90248      7.56055         0.058363      0.016300      0.012780
Ir     12.52372     13.91243      8.42316        -0.005242      0.016798     -0.000972
Ir      9.62213     11.30528      5.60802         0.045444     -0.019389     -0.022964
Ir      9.07492     13.52659      7.07378         0.005614     -0.030076      0.000284
Ir      9.20208      9.67575      7.57715         0.038857     -0.002730     -0.015163
Ir     13.09416      7.02801     11.94417         0.054047      0.018556     -0.001482
Ir     13.33967      6.95604      9.11085         0.052641      0.021843      0.007846
Ir     10.84751      7.60728     12.91641         0.053597      0.003842     -0.011407
Ir     13.57846     11.48027      8.73532         0.010920      0.028695      0.017800
Ir     11.39873      9.67850      6.24352         0.044973     -0.002909      0.000610
Ir      7.00337      9.31208      8.99370         0.053598     -0.028750     -0.013597
Ir     14.04415     11.32956     11.59794        -0.003479      0.033769      0.030380
Ir     11.53947      9.89519      8.92354         0.052261     -0.009166     -0.001379
Ir      9.29925      9.57393     10.27240         0.041876     -0.009865      0.000305
Ir     13.72225      9.28966     10.16629         0.051100      0.041940      0.012834
Ir     13.69953      9.13289     12.90976         0.047199      0.012755      0.014676
Ir     11.56488      9.72365     11.58296         0.055099      0.013630      0.011291
Ir      9.85015     11.81171      8.99510         0.025469     -0.007860     -0.001901
Ir      8.81855      7.47521      8.90809         0.062374     -0.004464     -0.010244
Ir     11.24799      7.62928      7.87440         0.071891     -0.004118     -0.016560
Ir      9.13588      9.56389     13.02912         0.038344     -0.011381      0.004327
Ir      7.55343     14.00870      8.98991        -0.006640     -0.025655     -0.004083
Ir     10.96671     14.11302     11.95935        -0.021628      0.032005      0.000263
Ir     10.14969     14.21942      9.53713        -0.010108     -0.012051     -0.012714
Ir      9.77617     11.73511     11.71762         0.004146     -0.004074      0.006721
Ir      7.53925     11.70147     10.22164         0.026290     -0.028683     -0.006445
Ir      8.42436     13.84378     11.61059        -0.013382     -0.022453     -0.013263
Ir      7.50871     11.74017     12.86289         0.011564     -0.038017     -0.017191
Ir      9.75986     11.68211     14.33081        -0.002257     -0.011253      0.007399
Ir     13.54556     13.79286     12.16528        -0.011240      0.037321      0.019453
Ir     12.00752     12.00509     13.06318        -0.002147      0.021656      0.022433
Ir     11.50262      9.81103     14.22374         0.023756      0.014012     -0.005267
Ir      7.01461      9.55248     11.54288         0.042503     -0.039495     -0.011141
