152
# total energy = -1004.16251586 eVH     10.35389      5.87395      7.64558        -0.262419      0.261835      0.571732
H     10.62451     15.10445      7.64558        -0.254163     -0.141610      0.701970
H     10.62451      5.87395     13.33282         0.464915      0.047723     -0.947223
H     10.35389     15.10445     13.33282         0.074083     -0.195639     -0.523658
H      7.64558     10.35389      5.87395         0.445228      0.071273      0.102948
H      7.64558     10.62451     15.10445         0.809180      0.613180     -0.031857
H     13.33282     10.62451      5.87395        -0.446235     -0.086307      0.304268
H     13.33282     10.35389     15.10445        -0.672387     -0.152275     -0.045223
H      5.87395      7.64558     10.35389         0.096117      1.784585      0.185412
H     15.10445      7.64558     10.62451        -0.097797      0.495569      0.116903
H      5.87395     13.33282     10.62451         0.209154     -0.757318      0.066880
H     15.10445     13.33282     10.35389         0.221314     -1.434714     -0.336328
H      5.87395     10.35389      7.64558         0.075701      0.078608      0.614512
H     15.10445     10.62451      7.64558        -0.231492      0.764795      1.316761
H      5.87395     10.62451     13.33282        -0.041914      0.457665     -1.309498
H     15.10445     10.35389     13.33282         0.137759     -0.125407     -0.768934
H     10.35389      7.64558      5.87395         0.223184      1.352787      0.207541
H     10.62451      7.64558     15.10445         0.577921      0.857345     -0.078260
H     10.62451     13.33282      5.87395        -0.568246     -0.796292      0.191107
H     10.35389     13.33282     15.10445        -0.118479     -0.522847     -0.287979
H      7.64558      5.87395     10.35389         1.114204     -0.311821     -0.154679
H      7.64558     15.10445     10.62451         0.691895     -0.211271     -0.016042
H     13.33282      5.87395     10.62451        -0.621812      0.115481      0.598934
H     13.33282     15.10445     10.35389        -0.362305     -0.044485     -0.117783
H     12.45634     12.45634     19.01126         0.272228      0.244360     -0.233420
H     19.01126     19.01126     19.01126        -0.266987     -0.275227     -0.212269
H     19.01126     12.45634     12.45634        -0.271918      0.255692      0.232883
H     12.45634     19.01126     12.45634         0.257942     -0.280700      0.227115
C     10.35284      5.61067      6.59456        -0.120838     -0.812956     -0.653548
C     10.62556     15.36773      6.59456         0.099665      0.360565     -0.266203
C     10.62556      5.61067     14.38384        -0.078860     -0.630868      0.611570
C     10.35284     15.36773     14.38384        -0.018246      0.228719      0.530858
C      6.59456     10.35284      5.61067        -0.728338      0.095426     -0.518062
C      6.59456     10.62556     15.36773        -1.001020      0.203993      0.734729
C     14.38384     10.62556      5.61067         0.908337      0.020897     -0.982078
C     14.38384     10.35284     15.36773         0.950038     -0.078877      0.497919
C      5.61067      6.59456     10.35284        -0.818773     -0.943050     -0.467225
C     15.36773      6.59456     10.62556         0.735611      0.007306     -0.203443
C      5.61067     14.38384     10.62556        -0.197757      0.915202     -0.025222
C     15.36773     14.38384     10.35284         0.305202      1.467804     -0.061359
C      5.61067     10.35284      6.59456        -0.314464      0.000408     -0.768503
C     15.36773     10.62556      6.59456         0.401551     -0.403459     -0.852956
C      5.61067     10.62556     14.38384        -0.362970     -0.017792      1.044755
C     15.36773     10.35284     14.38384         0.282622     -0.032988      0.905630
C     10.35284      6.59456      5.61067        -0.028180     -1.029019     -0.288403
C     10.62556      6.59456     15.36773         0.021653     -0.731928      0.587301
C     10.62556     14.38384      5.61067         0.104613      0.939934     -0.438241
C     10.35284     14.38384     15.36773        -0.026685      0.744166      0.361268
C      6.59456      5.61067     10.35284        -0.721070     -1.161559      0.168097
C      6.59456     15.36773     10.62556        -0.751425      0.118773      0.076666
C     14.38384      5.61067     10.62556        -0.052770     -0.478700     -0.412901
C     14.38384     15.36773     10.35284         0.073419      0.621540     -0.073932
C     10.40319      3.19606      7.29314         0.009111      0.604612     -0.810143
C     10.35913      4.25547      6.23373         0.007841     -0.474566      0.122779
C      0.08601      7.29314      7.29314        -0.030274     -1.066235     -0.270032
C      0.13007      6.23373      6.23373        -0.048487      0.397079      0.465715
C      0.08601      3.19606      3.19606         0.038169      1.170530      0.220727
C      0.13007      4.25547      4.25547         0.002345     -0.432664     -0.421578
C     10.40319      7.29314      3.19606        -0.012304     -0.639820      0.199736
C     10.35913      6.23373      4.25547        -0.034744      0.120442     -0.675076
C      7.29314     10.40319      3.19606        -0.449340      0.015547      0.235695
C      6.23373     10.35913      4.25547         0.202172      0.054772     -0.104566
C      7.29314      0.08601      7.29314        -1.259292     -0.077823     -0.398595
C      6.23373      0.13007      6.23373         0.679578     -0.194521      0.372618
C      3.19606      0.08601      3.19606         1.228751     -0.012585      0.267364
C      4.25547      0.13007      4.25547        -0.599672     -0.135952     -0.210343
C      3.19606     10.40319      7.29314         0.546876      0.031706     -0.257511
C      4.25547     10.35913      6.23373        -0.207508      0.064461      0.181419
C      3.19606      7.29314     10.40319         0.283951     -0.541376      0.051898
C      4.25547      6.23373     10.35913        -0.966347     -0.006026      0.157110
C      7.29314      7.29314      0.08601        -0.471421     -0.436219     -0.019463
C      6.23373      6.23373      0.13007         0.428911      0.304295      0.065627
C      3.19606      3.19606      0.08601         0.630944      0.460737     -0.020926
C      4.25547      4.25547      0.13007        -0.149390     -0.787488     -0.110846
C      7.29314      3.19606     10.40319        -0.371725      0.451479      0.054423
C      6.23373      4.25547     10.35913         0.603165     -0.680543      0.195572
O     10.43466      3.58206      8.50569         0.055743      0.222941      0.704349
O     10.54374     17.39634      8.50569         0.053133     -0.022901      0.309557
O     10.54374      3.58206     12.47271         0.004054     -0.045079     -0.240280
O     10.43466     17.39634     12.47271        -0.033720     -0.090272     -0.361207
O      8.50569     10.43466      3.58206         0.586589     -0.049464      0.149764
O      8.50569     10.54374     17.39634         0.879977     -0.077545     -0.131551
O     12.47271     10.54374      3.58206        -0.889675      0.144004      0.125677
O     12.47271     10.43466     17.39634        -0.603107      0.041159     -0.183654
O      3.58206      8.50569     10.43466         0.178778      0.642860     -0.038748
O     17.39634      8.50569     10.54374        -0.139559      0.627229      0.020374
O      3.58206     12.47271     10.54374         0.109221     -0.560913      0.046274
O     17.39634     12.47271     10.43466        -0.178684     -0.563146     -0.056943
O      3.58206     10.43466      8.50569         0.091222     -0.041639      0.383335
O     17.39634     10.54374      8.50569         0.066513      0.104130      0.332394
O      3.58206     10.54374     12.47271        -0.032273      0.025637     -0.225378
O     17.39634     10.43466     12.47271        -0.106469     -0.028625     -0.401141
O     10.43466      8.50569      3.58206        -0.048469      0.661804      0.187684
O     10.54374      8.50569     17.39634        -0.087109      0.816703     -0.142928
O     10.54374     12.47271      3.58206         0.122212     -0.941234      0.170407
O     10.43466     12.47271     17.39634         0.013768     -0.454556     -0.053537
O      8.50569      3.58206     10.43466         0.560142      0.148061     -0.050980
O      8.50569     17.39634     10.54374         0.591468     -0.162515      0.016645
O     12.47271      3.58206     10.54374        -0.736703      0.121829      0.019519
O     12.47271     17.39634     10.43466        -0.504880     -0.129439     -0.029692
O     11.90042     11.90042     19.56718        -0.323252     -0.266862      0.244006
O     19.56718     19.56718     19.56718         0.295662      0.325314      0.205671
O     19.56718     11.90042     11.90042         0.343565     -0.285642     -0.246878
O     11.90042     19.56718     11.90042        -0.284905      0.348423     -0.218614
O      9.45224      1.03696      9.45224        -0.041553      0.105271     -0.121969
O      1.03696      9.45224      9.45224         0.069037     -0.031560     -0.107393
O      1.03696      1.03696      1.03696         0.060985      0.089115      0.107292
O      9.45224      9.45224      1.03696        -0.035645     -0.026839      0.099279
Zr     10.48920      2.52580     10.48920        -0.088333     -0.235409      0.182203
Zr     10.48920     18.45260     10.48920         0.022629      0.057390      0.069143
Zr     10.48920     10.48920      2.52580        -0.301612     -0.210290     -0.411831
Zr     10.48920     10.48920     18.45260         0.192170      0.008162      0.341754
Zr      2.52580     10.48920     10.48920        -0.128262     -0.046335     -0.063603
Zr     18.45260     10.48920     10.48920         0.103928     -0.044760      0.131184
Pd     12.66961      8.21370      9.68993         0.061126     -0.001083      0.048526
Pd      6.78216      9.63437     10.49748         0.024389     -0.047152      0.037339
Pd      6.95221     11.80307     11.94103         0.013890     -0.008709      0.051573
Pd     12.25167     13.49368      7.29955        -0.039881     -0.032394     -0.007303
Pd     12.12435      7.92185      7.05214        -0.040213     -0.041003     -0.038250
Pd      8.51541      7.40748      6.96834         0.086644     -0.062955     -0.073958
Pd     11.55274     11.47399      5.66456         0.029607      0.010604      0.029537
Pd     14.53619      8.80807      7.81364        -0.042401      0.035783     -0.004989
Pd      9.92299     11.76664      7.84163         0.000143     -0.023662     -0.035005
Pd      7.08566      7.18888     11.98397         0.023550     -0.040843     -0.052192
Pd      6.43754      7.76363      8.50069        -0.038988     -0.034190      0.017167
Pd      7.33209      9.25211     13.50043         0.003313      0.094441     -0.004515
Pd     11.32695      6.04841      9.23090         0.032051     -0.059016     -0.055725
Pd      9.90299      9.60478      6.24537        -0.000871     -0.060226      0.082530
Pd      9.13265     13.90021      9.25940        -0.024963      0.037625     -0.025346
Pd     10.83878      7.14601     11.53827         0.088520     -0.005040      0.052900
Pd     10.33113      9.03677      8.88451        -0.074373      0.057801     -0.033050
Pd      9.26396     11.48175     10.41412        -0.053937     -0.070942      0.059551
Pd      8.84346      7.13590      9.65551        -0.006004     -0.007836      0.027049
Pd      9.02793      7.25521     13.73075         0.024605      0.005825     -0.067653
Pd      9.12633      9.10285     11.50577        -0.206232      0.021510     -0.111845
Pd     12.37537     10.56042      8.07848        -0.059166      0.084406      0.016137
Pd      6.97535     12.07566      9.23536         0.040936      0.030526     -0.035585
Pd      8.03983      9.88364      8.18376         0.066468      0.014444      0.034844
Pd     13.97395      6.27235      8.46101        -0.005053      0.044942      0.017665
Pd     13.24685      8.18687     12.22206         0.086623      0.052174     -0.028096
Pd      9.19514     11.30188     13.23431        -0.119061     -0.013804     -0.041616
Pd     14.10641     12.42850      8.78927        -0.036120     -0.021112      0.074600
Pd     13.17007     10.78480     12.90390        -0.026176     -0.039753      0.008900
Pd     14.25417     10.23994     10.35073        -0.046185      0.007782      0.048900
Pd     11.59099     10.32554     10.84001         0.101413      0.096942      0.100690
Pd     11.54776     12.90445      9.76463         0.075473      0.018615     -0.061503
Pd     13.70429     12.84517     11.48175         0.026916      0.028871     -0.073771
Pd     11.26542     12.58457     12.33338         0.014672      0.087293      0.035002
Pd     11.37689     11.46693     14.79813         0.015796     -0.001583      0.006583
Pd     11.05865      9.21281     13.30386         0.069766     -0.008959      0.070698
Pd      9.47322      9.60694     15.35113         0.010253     -0.025244     -0.043964
Pd      8.95203     13.71180     11.93745        -0.090413      0.042550      0.039857
