152
# total energy = -1022.89058986 eVH     10.35389      5.87395      7.64558         0.472447      0.026916      0.875928
H     10.62451     15.10445      7.64558        -0.051290      0.037204      0.772191
H     10.62451      5.87395     13.33282         0.145924      0.116921     -0.610455
H     10.35389     15.10445     13.33282        -0.249399     -0.082640     -0.558844
H      7.64558     10.35389      5.87395         0.329768     -0.033284      0.189715
H      7.64558     10.62451     15.10445         0.619742     -0.195026     -0.140078
H     13.33282     10.62451      5.87395        -0.832528     -0.311270      0.174265
H     13.33282     10.35389     15.10445        -0.450577     -0.083777     -0.066519
H      5.87395      7.64558     10.35389         0.136820      1.100982     -0.177095
H     15.10445      7.64558     10.62451        -0.170192      0.406110     -0.086362
H      5.87395     13.33282     10.62451         0.143788     -0.410254     -0.072548
H     15.10445     13.33282     10.35389        -0.077918     -0.969446     -0.176115
H      5.87395     10.35389      7.64558         0.130380      0.044460      0.485968
H     15.10445     10.62451      7.64558         0.107691     -0.194282      0.841551
H      5.87395     10.62451     13.33282         0.261236     -0.033366     -0.394484
H     15.10445     10.35389     13.33282        -0.152365      0.013486     -0.622525
H     10.35389      7.64558      5.87395         0.060741      0.891388      0.113347
H     10.62451      7.64558     15.10445         0.026070      0.538848     -0.146470
H     10.62451     13.33282      5.87395         0.044816     -0.594609      0.186937
H     10.35389     13.33282     15.10445        -0.256454     -0.897508     -0.111330
H      7.64558      5.87395     10.35389         0.521297      0.050327     -0.128121
H      7.64558     15.10445     10.62451         0.919349     -0.212829      0.274482
H     13.33282      5.87395     10.62451        -0.439810      0.185120     -0.059448
H     13.33282     15.10445     10.35389        -0.997468     -0.105749      0.246826
H     12.45634     12.45634     19.01126         0.265611      0.257625     -0.225246
H     19.01126     19.01126     19.01126        -0.247436     -0.235101     -0.262149
H     19.01126     12.45634     12.45634        -0.240112      0.271051      0.239343
H     12.45634     19.01126     12.45634         0.211566     -0.281955      0.252784
C     10.35284      5.61067      6.59456        -0.111283     -0.449557     -0.358451
C     10.62556     15.36773      6.59456         0.022453      0.351513     -1.155281
C     10.62556      5.61067     14.38384        -0.032277     -0.214504      0.731676
C     10.35284     15.36773     14.38384         0.165673      0.781264      0.166919
C      6.59456     10.35284      5.61067        -0.406760     -0.039512     -0.176649
C      6.59456     10.62556     15.36773        -0.792590      0.154485      0.350180
C     14.38384     10.62556      5.61067         0.576734      0.291124     -0.378248
C     14.38384     10.35284     15.36773         0.722904     -0.119280      0.430513
C      5.61067      6.59456     10.35284        -0.420434     -0.723364      0.293397
C     15.36773      6.59456     10.62556         0.196344     -0.465869      0.047444
C      5.61067     14.38384     10.62556        -0.250189      0.382535     -0.027006
C     15.36773     14.38384     10.35284         0.408904      0.137900      0.168248
C      5.61067     10.35284      6.59456        -0.307526     -0.017187     -0.887875
C     15.36773     10.62556      6.59456         0.579427     -0.169914     -1.237495
C      5.61067     10.62556     14.38384        -0.449415      0.006395      0.859339
C     15.36773     10.35284     14.38384         0.518369     -0.183964      1.246034
C     10.35284      6.59456      5.61067        -0.039745     -0.931036     -0.657725
C     10.62556      6.59456     15.36773         0.042185     -0.637473      0.287159
C     10.62556     14.38384      5.61067         0.050613      1.222894     -0.681730
C     10.35284     14.38384     15.36773         0.109387      0.609788      0.646057
C      6.59456      5.61067     10.35284        -0.200078     -0.880149      0.127258
C      6.59456     15.36773     10.62556        -1.711373      0.486739      0.048395
C     14.38384      5.61067     10.62556         0.590839     -0.230358     -0.007612
C     14.38384     15.36773     10.35284         0.122490      0.564070     -0.245370
C     10.40319      3.19606      7.29314         0.014772      0.894828     -0.256129
C     10.35913      4.25547      6.23373        -0.056629     -0.373926      0.600832
C      0.08601      7.29314      7.29314        -0.009070     -0.241957     -0.469947
C      0.13007      6.23373      6.23373         0.003608      0.115293      0.207086
C      0.08601      3.19606      3.19606        -0.016770      0.650713      0.186120
C      0.13007      4.25547      4.25547        -0.088771     -0.198499     -0.170302
C     10.40319      7.29314      3.19606        -0.002727     -0.694941      0.525536
C     10.35913      6.23373      4.25547        -0.014678      0.492004     -0.432336
C      7.29314     10.40319      3.19606        -0.338039      0.023709      0.877924
C      6.23373     10.35913      4.25547         0.212861      0.013570     -0.143403
C      7.29314      0.08601      7.29314        -0.310439     -0.045541     -0.280621
C      6.23373      0.13007      6.23373         0.272932     -0.057952      0.300410
C      3.19606      0.08601      3.19606         0.452691     -0.051422      1.277550
C      4.25547      0.13007      4.25547        -0.114251     -0.028028     -0.462451
C      3.19606     10.40319      7.29314         0.700009      0.013828     -0.266679
C      4.25547     10.35913      6.23373        -0.136062      0.030890      0.103836
C      3.19606      7.29314     10.40319         0.608315     -1.272201      0.022686
C      4.25547      6.23373     10.35913        -0.707242      0.851722      0.055043
C      7.29314      7.29314      0.08601        -0.649956     -0.174722     -0.021372
C      6.23373      6.23373      0.13007         0.174335      0.266749     -0.007124
C      3.19606      3.19606      0.08601         0.242346      0.253811     -0.019104
C      4.25547      4.25547      0.13007        -0.056834     -0.037116      0.011139
C      7.29314      3.19606     10.40319        -0.370820      0.815761      0.014469
C      6.23373      4.25547     10.35913         0.887553     -0.157006      0.008012
O     10.43466      3.58206      8.50569        -0.049560      0.036471      0.326910
O     10.54374     17.39634      8.50569        -0.024363     -0.179987      0.600303
O     10.54374      3.58206     12.47271         0.054278      0.060016     -0.323166
O     10.43466     17.39634     12.47271        -0.023061     -0.126021     -0.584691
O      8.50569     10.43466      3.58206         0.373284     -0.025581     -0.018031
O      8.50569     10.54374     17.39634         0.471530      0.052402     -0.142287
O     12.47271     10.54374      3.58206        -0.298643      0.046363     -0.068744
O     12.47271     10.43466     17.39634        -0.851611      0.019083     -0.227182
O      3.58206      8.50569     10.43466         0.045243      0.930623      0.037518
O     17.39634      8.50569     10.54374        -0.041136      0.340285      0.077923
O      3.58206     12.47271     10.54374         0.062898     -0.422498      0.064395
O     17.39634     12.47271     10.43466        -0.171368     -0.788901      0.023017
O      3.58206     10.43466      8.50569        -0.055511     -0.066655      0.225650
O     17.39634     10.54374      8.50569        -0.136427      0.043611      0.464125
O      3.58206     10.54374     12.47271        -0.012424     -0.050499     -0.884757
O     17.39634     10.43466     12.47271        -0.198170      0.046036     -0.772099
O     10.43466      8.50569      3.58206         0.045666      0.679274      0.189431
O     10.54374      8.50569     17.39634         0.053849      0.440360     -0.080965
O     10.54374     12.47271      3.58206        -0.007842     -0.736826      0.225976
O     10.43466     12.47271     17.39634         0.047091     -0.848225     -0.272113
O      8.50569      3.58206     10.43466         0.485840      0.070545     -0.037825
O      8.50569     17.39634     10.54374         0.650802     -0.252218     -0.060166
O     12.47271      3.58206     10.54374        -0.482814      0.163185      0.039561
O     12.47271     17.39634     10.43466        -0.526135     -0.034658     -0.028218
O     11.90042     11.90042     19.56718        -0.303802     -0.312083      0.264524
O     19.56718     19.56718     19.56718         0.286186      0.272373      0.320993
O     19.56718     11.90042     11.90042         0.276894     -0.330292     -0.243589
O     11.90042     19.56718     11.90042        -0.231250      0.289936     -0.241755
O      9.45224      1.03696      9.45224        -0.075288      0.047818     -0.066682
O      1.03696      9.45224      9.45224         0.051727     -0.146385     -0.060261
O      1.03696      1.03696      1.03696         0.039456      0.036125      0.188571
O      9.45224      9.45224      1.03696        -0.042331     -0.091766      0.123203
Zr     10.48920      2.52580     10.48920        -0.006021     -0.075552     -0.026335
Zr     10.48920     18.45260     10.48920         0.060672      0.306141     -0.071373
Zr     10.48920     10.48920      2.52580        -0.092464      0.010420     -0.376193
Zr     10.48920     10.48920     18.45260        -0.135282     -0.148991      0.331811
Zr      2.52580     10.48920     10.48920        -0.359882      0.312876     -0.452459
Zr     18.45260     10.48920     10.48920         0.248072      0.030305     -0.271591
Pd      9.03078     10.24663     13.32920        -0.011987     -0.012935      0.006966
Pd     10.57806      9.71791     10.94803         0.005938     -0.005476     -0.030612
Pd     13.77126      8.53531     12.68946        -0.001128      0.003511     -0.012376
Pd     11.00204     11.06351     15.00885        -0.003829     -0.016794      0.004363
Pd     12.86830     11.17440     13.00730         0.018380      0.008130      0.019243
Pd     15.00138     10.94467     11.34086         0.000460      0.018412     -0.008762
Pd      6.65047      7.45139     12.34355        -0.004465      0.024804      0.000437
Pd      9.23663      7.27200     10.09631         0.005992      0.013527     -0.031306
Pd      9.27201      7.59701     12.77831         0.004688     -0.010978     -0.020711
Pd     11.70436      7.28941     11.45893         0.000088      0.000465     -0.015313
Pd     11.43242      7.99142      8.85759         0.026763     -0.001946     -0.015334
Pd      7.26205     11.83391     11.94837         0.007250     -0.003313     -0.014700
Pd      8.91323     14.67330      9.33464         0.039798      0.005657      0.019689
Pd      8.41547     12.64638     14.32102        -0.006674     -0.008043      0.001213
Pd     13.55967     14.11528      8.54099         0.087191      0.023522     -0.044381
Pd     11.01580     13.34915      8.53091         0.075206      0.037570      0.039497
Pd     14.10502     11.54597      8.92901        -0.000525      0.020911     -0.011826
Pd      8.62462     14.10113     12.10181         0.010860     -0.005855      0.003062
Pd     12.24018     13.70922     14.03269        -0.005209      0.004156      0.004487
Pd     11.16670     14.42544     11.16584         0.032606     -0.012946      0.049490
Pd     14.04394     13.56014     12.16677        -0.008538      0.016801     -0.000057
Pd     12.30556     12.13813     10.67028         0.008161     -0.023904      0.013230
Pd     12.69244     12.36281      6.70547         0.012435      0.032740     -0.015782
Pd     13.70286      8.94137      7.94334         0.028714      0.002161     -0.007153
Pd      6.87580      8.47453      8.84321         0.006873      0.008496     -0.002826
Pd      5.52686      9.95439     11.23067         0.009002      0.023571     -0.049674
Pd      9.17754      9.74220      8.31152         0.023927     -0.028939     -0.018913
Pd      8.81687      7.25356      7.43153        -0.030699     -0.022889     -0.027442
Pd      9.53305     12.08503     10.41858         0.026235      0.004208      0.004071
Pd     11.56895     10.71278      8.54207         0.012706      0.010790     -0.024828
Pd     11.28467      9.20678      6.43614         0.037234     -0.016397     -0.012994
Pd      9.94078     11.52395      6.36970         0.026926     -0.020969     -0.003801
Ir     11.34918      9.11238     13.33118        -0.003277      0.007259     -0.023902
Ir     13.08525      9.49832     10.40050         0.013621      0.004022     -0.016654
Ir     10.52907     12.34308     12.70926        -0.003210     -0.018039      0.013938
Ir      7.17221     10.99197      9.49051         0.044957     -0.002911     -0.014981
Ir      8.44774     12.45981      8.16514         0.066371      0.020699     -0.008648
Ir      8.06702      9.29750     11.11085         0.005576      0.008362     -0.006042
