35
# total energy = -301.60108267 eVC      6.68773     10.30000      7.67926         0.034520     -0.022438      0.001702
C      8.07697      9.95429      7.59311        -0.024212      0.011081      0.013281
C      9.41142      5.71588      7.62977        -0.019483      0.021495     -0.062732
C      1.46642      5.34297      7.71555        -0.046322     -0.045696      0.011586
C      4.19269      0.76057      7.64100        -0.016654     -0.015412     -0.039033
C      2.80297      1.10060      7.57155        -0.064374      0.183761     -0.014992
C      0.70125      4.16354      7.67230         0.013521      0.017464      0.008433
C      1.08248      2.78336      7.58921        -0.144855      0.086651      0.013380
C      5.35120      1.55559      7.61302         0.059901      0.021756     -0.059494
C      5.52877      9.50587      7.72878         0.003707      0.021007      0.002492
C     10.17762      6.89467      7.64575         0.007979     -0.009827     -0.031633
C      9.80171      8.27541      7.57397        -0.075149      0.012668     -0.004846
C      0.77994      6.57108      7.66321        -0.036769      0.070010      0.008651
C      1.27339      7.91490      7.58289        -0.003281     -0.023241      0.052369
C     10.09904      4.48767      7.63861         0.064509     -0.055574     -0.023126
C      9.61049      3.14488      7.53954        -0.029373     -0.047579     -0.001406
C      4.28289     10.16060      7.67802        -0.049086      0.036790      0.000730
C      2.95190      9.63456      7.59475         0.011324     -0.013853      0.046579
C      6.59783      0.89873      7.62487        -0.011834     -0.010644     -0.016043
C      7.92783      1.42083      7.52703         0.053260      0.046622      0.010818
N      8.80289      0.33405      7.46139         0.049787     -0.011644     -0.019896
N      0.16716      8.76350      7.48522        -0.004892      0.026839     -0.012570
N      8.55108      8.71727      7.60841         0.055371     -0.033645      0.024412
N      2.32849      2.34206      7.60444         0.187758     -0.194637      0.025025
N      2.07521     10.71856      7.50018         0.006669      0.008099     -0.021294
N     10.71873      2.29707      7.47573        -0.001966     -0.051901     -0.030322
N      2.59165      8.30716      7.60331        -0.056662      0.052418      0.110215
N      8.29205      2.74901      7.51781         0.040964     -0.059225      0.026308
O      5.32464      2.88175      7.48815         0.003192     -0.018141     -0.042151
O      5.56043      8.17748      7.80785        -0.006150      0.019250      0.039814
O      8.08376      5.71114      7.51963         0.023362     -0.007912     -0.067279
O      2.79468      5.34495      7.79257         0.015723      0.014868      0.042140
Zr      6.54683      4.45250      7.31462         0.002861     -0.014351      0.087534
Zr      4.34931      6.59391      7.87707        -0.040819     -0.007366     -0.054722
Zr      0.02972     10.81135      6.86395        -0.002527     -0.007693     -0.023929
