152
# total energy = -1004.49604058 eVH     10.35389      5.87395      7.64558        -0.130448      0.125578      0.653155
H     10.62451     15.10445      7.64558        -0.129998     -0.176560      0.541212
H     10.62451      5.87395     13.33282         0.398424      0.026006     -0.862756
H     10.35389     15.10445     13.33282         0.051413     -0.173456     -0.498278
H      7.64558     10.35389      5.87395         0.360658      0.044403      0.149607
H      7.64558     10.62451     15.10445         0.936801      0.631816      0.020138
H     13.33282     10.62451      5.87395        -0.457868      0.090077      0.170508
H     13.33282     10.35389     15.10445        -0.824162     -0.242320      0.035236
H      5.87395      7.64558     10.35389         0.203920      1.750832      0.172206
H     15.10445      7.64558     10.62451        -0.080842      0.505148      0.257070
H      5.87395     13.33282     10.62451         0.198299     -0.560024     -0.011425
H     15.10445     13.33282     10.35389         0.199143     -1.313583     -0.474176
H      5.87395     10.35389      7.64558         0.140716      0.041056      0.496605
H     15.10445     10.62451      7.64558        -0.215855      0.869686      1.370957
H      5.87395     10.62451     13.33282        -0.020489      0.543071     -1.227852
H     15.10445     10.35389     13.33282         0.075404     -0.208973     -0.800289
H     10.35389      7.64558      5.87395         0.246920      1.281179      0.122451
H     10.62451      7.64558     15.10445         0.517002      0.766404     -0.097690
H     10.62451     13.33282      5.87395        -0.445289     -0.701502      0.313703
H     10.35389     13.33282     15.10445        -0.240489     -0.500661     -0.328061
H      7.64558      5.87395     10.35389         1.179125     -0.236659     -0.077686
H      7.64558     15.10445     10.62451         0.836488     -0.191168     -0.014559
H     13.33282      5.87395     10.62451        -0.599082      0.123256      0.653551
H     13.33282     15.10445     10.35389        -0.529934     -0.020395     -0.233374
H     12.45634     12.45634     19.01126         0.267606      0.254744     -0.230677
H     19.01126     19.01126     19.01126        -0.268807     -0.263241     -0.222221
H     19.01126     12.45634     12.45634        -0.277877      0.256419      0.226873
H     12.45634     19.01126     12.45634         0.242476     -0.280118      0.242602
C     10.35284      5.61067      6.59456        -0.157959     -0.797881     -0.412854
C     10.62556     15.36773      6.59456         0.068975      0.243570     -0.294505
C     10.62556      5.61067     14.38384        -0.038170     -0.437260      0.574258
C     10.35284     15.36773     14.38384         0.008449      0.248436      0.488305
C      6.59456     10.35284      5.61067        -0.464424      0.042793     -0.312919
C      6.59456     10.62556     15.36773        -0.921904      0.179785      0.704273
C     14.38384     10.62556      5.61067         0.649197      0.012917     -0.939557
C     14.38384     10.35284     15.36773         0.932517     -0.124287      0.370636
C      5.61067      6.59456     10.35284        -0.890686     -0.995603     -0.473815
C     15.36773      6.59456     10.62556         0.697820     -0.029626     -0.236839
C      5.61067     14.38384     10.62556        -0.253156      0.604728      0.013078
C     15.36773     14.38384     10.35284         0.311391      1.300946      0.077643
C      5.61067     10.35284      6.59456        -0.272687      0.013337     -0.695585
C     15.36773     10.62556      6.59456         0.515090     -0.325616     -0.905889
C      5.61067     10.62556     14.38384        -0.509208     -0.008957      0.831067
C     15.36773     10.35284     14.38384         0.498800     -0.079014      1.019278
C     10.35284      6.59456      5.61067        -0.100739     -0.896156     -0.369281
C     10.62556      6.59456     15.36773         0.116930     -0.762085      0.492434
C     10.62556     14.38384      5.61067         0.133212      1.100392     -0.321634
C     10.35284     14.38384     15.36773        -0.023941      1.037202      0.495225
C      6.59456      5.61067     10.35284        -0.560658     -1.244114      0.088024
C      6.59456     15.36773     10.62556        -0.991795      0.190815      0.099596
C     14.38384      5.61067     10.62556        -0.131452     -0.486168     -0.285909
C     14.38384     15.36773     10.35284         0.262501      0.589977     -0.069648
C     10.40319      3.19606      7.29314         0.009874      0.860039     -0.538711
C     10.35913      4.25547      6.23373         0.041482     -0.533191      0.134396
C      0.08601      7.29314      7.29314        -0.027223     -0.984091     -0.222092
C      0.13007      6.23373      6.23373        -0.087843      0.332310      0.318960
C      0.08601      3.19606      3.19606         0.053391      1.322890      0.146117
C      0.13007      4.25547      4.25547        -0.027465     -0.340531     -0.391984
C     10.40319      7.29314      3.19606        -0.004236     -0.494084      0.260692
C     10.35913      6.23373      4.25547        -0.019151      0.115605     -0.720192
C      7.29314     10.40319      3.19606        -0.308226      0.021629      0.495091
C      6.23373     10.35913      4.25547         0.214731      0.089840     -0.110162
C      7.29314      0.08601      7.29314        -1.023621     -0.098808     -0.385084
C      6.23373      0.13007      6.23373         0.681332     -0.198284      0.455374
C      3.19606      0.08601      3.19606         1.216101     -0.020867      0.405439
C      4.25547      0.13007      4.25547        -0.673700     -0.170217     -0.248195
C      3.19606     10.40319      7.29314         0.565105      0.025439     -0.345941
C      4.25547     10.35913      6.23373        -0.238616      0.104422      0.222541
C      3.19606      7.29314     10.40319         0.334611     -0.849519      0.036320
C      4.25547      6.23373     10.35913        -1.099253      0.132666      0.186275
C      7.29314      7.29314      0.08601        -0.468907     -0.500445     -0.015257
C      6.23373      6.23373      0.13007         0.483344      0.315657      0.002938
C      3.19606      3.19606      0.08601         0.531343      0.400064     -0.022824
C      4.25547      4.25547      0.13007        -0.021196     -0.727044     -0.095642
C      7.29314      3.19606     10.40319        -0.395473      0.505823      0.056236
C      6.23373      4.25547     10.35913         0.569032     -0.710622      0.217475
O     10.43466      3.58206      8.50569         0.002814      0.085420      0.503759
O     10.54374     17.39634      8.50569         0.055246     -0.023061      0.270718
O     10.54374      3.58206     12.47271        -0.003421     -0.086361     -0.130611
O     10.43466     17.39634     12.47271        -0.037806     -0.130260     -0.471472
O      8.50569     10.43466      3.58206         0.399433     -0.027247      0.057389
O      8.50569     10.54374     17.39634         0.841222     -0.055295     -0.157269
O     12.47271     10.54374      3.58206        -0.891643      0.116491      0.075869
O     12.47271     10.43466     17.39634        -0.596013      0.024054     -0.151963
O      3.58206      8.50569     10.43466         0.191463      0.866696     -0.017784
O     17.39634      8.50569     10.54374        -0.152448      0.673360      0.039445
O      3.58206     12.47271     10.54374         0.106905     -0.543336      0.053142
O     17.39634     12.47271     10.43466        -0.166479     -0.603054     -0.038552
O      3.58206     10.43466      8.50569         0.078121     -0.057755      0.450842
O     17.39634     10.54374      8.50569         0.027501      0.095758      0.397391
O      3.58206     10.54374     12.47271        -0.026547      0.026229     -0.321893
O     17.39634     10.43466     12.47271        -0.190707     -0.034062     -0.638545
O     10.43466      8.50569      3.58206        -0.031395      0.588722      0.163992
O     10.54374      8.50569     17.39634        -0.091948      0.798286     -0.222988
O     10.54374     12.47271      3.58206         0.099858     -0.955152      0.144137
O     10.43466     12.47271     17.39634         0.067859     -0.717640     -0.185500
O      8.50569      3.58206     10.43466         0.569818      0.141694     -0.047261
O      8.50569     17.39634     10.54374         0.548710     -0.150141      0.004928
O     12.47271      3.58206     10.54374        -0.686552      0.153541      0.019250
O     12.47271     17.39634     10.43466        -0.429372     -0.056838     -0.033427
O     11.90042     11.90042     19.56718        -0.317504     -0.290347      0.243023
O     19.56718     19.56718     19.56718         0.303555      0.308514      0.217938
O     19.56718     11.90042     11.90042         0.335685     -0.274423     -0.234665
O     11.90042     19.56718     11.90042        -0.262154      0.346022     -0.259623
O      9.45224      1.03696      9.45224        -0.024171      0.082487     -0.127209
O      1.03696      9.45224      9.45224         0.068122     -0.038799     -0.127700
O      1.03696      1.03696      1.03696         0.078483      0.104897      0.087178
O      9.45224      9.45224      1.03696        -0.057090     -0.047924      0.069766
Zr     10.48920      2.52580     10.48920        -0.062172     -0.203032      0.035318
Zr     10.48920     18.45260     10.48920         0.000325      0.076953      0.156970
Zr     10.48920     10.48920      2.52580        -0.296246     -0.399732     -0.343589
Zr     10.48920     10.48920     18.45260         0.095542      0.025785      0.407001
Zr      2.52580     10.48920     10.48920        -0.205958      0.088901     -0.013103
Zr     18.45260     10.48920     10.48920         0.174419     -0.005628      0.013722
Pd     13.03683      8.51221      9.83180        -0.039381      0.062763     -0.065615
Pd      6.24146      9.61081     10.24535         0.006992      0.047616      0.013676
Pd      6.98362     11.59426     11.77755        -0.072363      0.032902     -0.026942
Pd     12.37026     13.29951      7.29237        -0.060084     -0.078028      0.031811
Pd     12.14152      7.83516      7.11930        -0.026575     -0.018037     -0.025190
Pd      8.46859      7.28937      6.88890         0.041917     -0.013415     -0.005405
Pd     11.37524     11.45413      5.59363        -0.075298     -0.029559     -0.047842
Pd     14.56546      8.80529      7.63887        -0.075583     -0.061417     -0.075669
Pd      9.90232     11.81703      7.96951         0.035838     -0.015957     -0.001472
Pd      7.04992      7.13680     12.01883        -0.055712     -0.050832      0.027458
Pd      6.33493      7.50585      8.40741         0.047488     -0.026499     -0.007933
Pd      7.22094      9.13797     13.66189         0.002322     -0.020331     -0.044066
Pd     11.40808      6.34293      9.22877         0.071890      0.004839     -0.031707
Pd     10.00524      9.51257      6.59818        -0.028179     -0.037039     -0.021466
Pd      9.04190     13.99939      9.36792         0.037887      0.004227     -0.018600
Pd     10.86327      7.45410     11.46276        -0.012679      0.024955      0.071699
Pd     10.47214      9.08701      9.27860         0.076470      0.074346      0.020904
Pd      9.49148     11.54335     10.57378        -0.012501     -0.011084      0.011148
Pd      8.84447      7.11200      9.58677         0.000860     -0.001089     -0.004315
Pd      9.18700      7.43184     13.48775         0.004350     -0.028231      0.007634
Pd      8.66081      9.21947     11.35188        -0.033396     -0.052743     -0.032650
Pd     12.25866     10.45559      7.89641         0.006315     -0.016901      0.003430
Pd      7.28997     11.94534      9.13808        -0.031524      0.032939      0.012746
Pd      8.09412      9.58076      8.37052        -0.062246      0.012185      0.052339
Pd     13.99874      6.38362      8.51893         0.085768     -0.055654     -0.050123
Pd     13.16005      8.48277     12.46391         0.018427      0.006993     -0.112311
Pd      9.01676     11.43476     13.35891         0.006558     -0.000557      0.063228
Pd     13.90879     12.05941      9.03875         0.014844     -0.012213      0.009006
Pd     13.17682     11.15447     13.17147        -0.007555     -0.016637      0.007145
Pd     14.66418     10.36904     10.98922        -0.020792     -0.021622     -0.048667
Pd     12.02583     10.78370     10.71465        -0.007941     -0.079814     -0.009947
Pd     11.53003     13.26884      9.75450         0.000489     -0.011085      0.164895
Pd     13.64444     13.10923     11.54972        -0.037757      0.030447      0.071775
Pd     11.15750     12.78351     12.38603        -0.063492      0.038703      0.037576
Pd     11.23170     11.58704     14.87334        -0.074680      0.020021      0.041501
Pd     10.90387      9.70764     12.87667        -0.009661     -0.058486     -0.042549
Pd      9.54155      9.54280     15.21355        -0.014573     -0.021415      0.004644
Pd      8.70199     13.73304     12.01705         0.031310      0.024159      0.007245
