31
# total energy = -195.18502583 eVH      2.20696      8.01575      7.50000         0.050083     -0.001526      0.000000
H      8.92244      3.11365      7.50000        -0.050083      0.001526      0.000000
H      3.11365      2.20696      7.50000         0.001526      0.050083      0.000000
H      8.01575      8.92244      7.50000        -0.001526     -0.050083      0.000000
H      1.48528      6.35861      7.50000        -0.002535      0.000423      0.000000
H      9.64412      4.77079      7.50000         0.002535     -0.000423      0.000000
H      4.77079      1.48528      7.50000        -0.000423     -0.002535      0.000000
H      6.35861      9.64412      7.50000         0.000423      0.002535      0.000000
H      4.17946      9.01922      7.50000         0.019792     -0.038512      0.000000
H      6.94994      2.11018      7.50000        -0.019792      0.038512      0.000000
H      2.11018      4.17946      7.50000         0.038512      0.019792      0.000000
H      9.01922      6.94994      7.50000        -0.038512     -0.019792      0.000000
C      8.51218      0.92687      7.50000        -0.030396      0.057044      0.000000
C      2.61722     10.20253      7.50000         0.030396     -0.057044     -0.000000
C     10.20253      8.51218      7.50000        -0.057044     -0.030396      0.000000
C      0.92687      2.61722      7.50000         0.057044      0.030396     -0.000000
C      9.19752     10.76375      7.50000         0.093629     -0.044876      0.000000
C      1.93188      0.36565      7.50000        -0.093629      0.044876      0.000000
C      0.36565      9.19752      7.50000         0.044876      0.093629     -0.000000
C     10.76375      1.93188      7.50000        -0.044876     -0.093629      0.000000
C      9.37390      2.10242      7.50000        -0.027853      0.021599     -0.000000
C      1.75550      9.02698      7.50000         0.027853     -0.021599     -0.000000
C      9.02698      9.37390      7.50000        -0.021599     -0.027853     -0.000000
C      2.10242      1.75550      7.50000         0.021599      0.027853     -0.000000
N      3.96968     10.02290      7.50000        -0.104412     -0.019653     -0.000000
N      7.15972      1.10650      7.50000         0.104412      0.019653     -0.000000
N      1.10650      3.96968      7.50000         0.019653     -0.104412     -0.000000
N     10.02290      7.15972      7.50000        -0.019653      0.104412      0.000000
Ir     -0.00000     -0.00000      7.50000         0.000000     -0.000000      0.000000
Ir      5.56470     -0.00000      7.50000         0.000000      0.000000      0.000000
Ir     -0.00000      5.56470      7.50000         0.000000     -0.000000      0.000000
