152
# total energy = -1024.37250366 eVH     10.35389      5.87395      7.64558         0.480973      0.031579      0.746924
H     10.62451     15.10445      7.64558         0.039727     -0.196080      0.616002
H     10.62451      5.87395     13.33282         0.094980      0.159894     -0.567721
H     10.35389     15.10445     13.33282        -0.457757     -0.041930     -0.755102
H      7.64558     10.35389      5.87395         0.338789      0.018223      0.164265
H      7.64558     10.62451     15.10445         0.899795     -0.265838      0.012896
H     13.33282     10.62451      5.87395        -0.755853     -0.067700      0.154580
H     13.33282     10.35389     15.10445        -0.889486     -0.407876      0.214170
H      5.87395      7.64558     10.35389         0.183276      0.725070     -0.265695
H     15.10445      7.64558     10.62451        -0.138923      0.392709     -0.029123
H      5.87395     13.33282     10.62451         0.159145     -0.523135     -0.113951
H     15.10445     13.33282     10.35389        -0.088915     -1.208379      0.048222
H      5.87395     10.35389      7.64558         0.140920      0.152669      0.516150
H     15.10445     10.62451      7.64558        -0.000457      0.103025      1.041104
H      5.87395     10.62451     13.33282         0.090652     -0.046198     -0.439083
H     15.10445     10.35389     13.33282        -0.144496     -0.169714     -0.491871
H     10.35389      7.64558      5.87395         0.084760      0.999880      0.230392
H     10.62451      7.64558     15.10445         0.003579      0.272242     -0.168622
H     10.62451     13.33282      5.87395        -0.103564     -0.402507      0.324235
H     10.35389     13.33282     15.10445        -0.441408     -0.606725     -0.010512
H      7.64558      5.87395     10.35389         0.498900      0.103272     -0.051849
H      7.64558     15.10445     10.62451         0.923118     -0.237215     -0.135612
H     13.33282      5.87395     10.62451        -0.590518      0.116123     -0.071993
H     13.33282     15.10445     10.35389        -0.591700     -0.053856      0.233767
H     12.45634     12.45634     19.01126         0.235109      0.279166     -0.236408
H     19.01126     19.01126     19.01126        -0.250646     -0.247938     -0.242520
H     19.01126     12.45634     12.45634        -0.265643      0.265539      0.220249
H     12.45634     19.01126     12.45634         0.236578     -0.266299      0.239173
C     10.35284      5.61067      6.59456        -0.199004     -0.676866      0.085101
C     10.62556     15.36773      6.59456        -0.039460      0.388431     -0.828078
C     10.62556      5.61067     14.38384        -0.006208     -0.056029      0.688348
C     10.35284     15.36773     14.38384         0.182106      0.705287      0.166083
C      6.59456     10.35284      5.61067        -0.340438     -0.020908     -0.290025
C      6.59456     10.62556     15.36773        -1.050952      0.286101      0.311801
C     14.38384     10.62556      5.61067         0.417636      0.351662     -0.667603
C     14.38384     10.35284     15.36773         1.031408      0.006563      0.284428
C      5.61067      6.59456     10.35284        -0.370212     -0.399001      0.369766
C     15.36773      6.59456     10.62556         0.191085     -0.508600      0.020060
C      5.61067     14.38384     10.62556        -0.201502      0.588354      0.009342
C     15.36773     14.38384     10.35284         0.351493      0.060594     -0.147622
C      5.61067     10.35284      6.59456        -0.321691     -0.078269     -1.013069
C     15.36773     10.62556      6.59456         0.854386     -0.336443     -0.968690
C      5.61067     10.62556     14.38384        -0.443176      0.029549      0.290261
C     15.36773     10.35284     14.38384         0.661598     -0.095695      1.082252
C     10.35284      6.59456      5.61067        -0.237786     -0.562604     -0.914992
C     10.62556      6.59456     15.36773         0.055792     -0.273884      0.048807
C     10.62556     14.38384      5.61067         0.083615      1.208305     -0.428297
C     10.35284     14.38384     15.36773         0.253909      0.146226      0.703162
C      6.59456      5.61067     10.35284        -0.231788     -0.745398      0.112773
C      6.59456     15.36773     10.62556        -1.213906      0.258636      0.140002
C     14.38384      5.61067     10.62556         0.999491     -0.291596      0.032585
C     14.38384     15.36773     10.35284        -0.512787      0.804952     -0.398981
C     10.40319      3.19606      7.29314        -0.026201      0.860795     -0.405732
C     10.35913      4.25547      6.23373         0.054745     -0.497982      0.554834
C      0.08601      7.29314      7.29314        -0.021234     -0.442334     -0.350278
C      0.13007      6.23373      6.23373        -0.021782      0.015261      0.102283
C      0.08601      3.19606      3.19606         0.007150      1.267973      0.189328
C      0.13007      4.25547      4.25547        -0.047352     -0.218014     -0.208564
C     10.40319      7.29314      3.19606        -0.011179     -1.044681      0.373420
C     10.35913      6.23373      4.25547         0.032793      0.468115     -0.662021
C      7.29314     10.40319      3.19606        -0.322664      0.036643      0.728480
C      6.23373     10.35913      4.25547         0.169886      0.078698     -0.102190
C      7.29314      0.08601      7.29314        -0.624225     -0.024131     -0.269667
C      6.23373      0.13007      6.23373         0.380761     -0.081853      0.494878
C      3.19606      0.08601      3.19606         0.988877     -0.008103      0.264284
C      4.25547      0.13007      4.25547        -0.131104     -0.040953     -0.513107
C      3.19606     10.40319      7.29314         0.400414     -0.011777     -0.936920
C      4.25547     10.35913      6.23373        -0.274519      0.098024      0.252005
C      3.19606      7.29314     10.40319         0.502541     -1.314645     -0.041593
C      4.25547      6.23373     10.35913        -0.503547      0.770373      0.103125
C      7.29314      7.29314      0.08601        -0.399268     -0.221674     -0.003084
C      6.23373      6.23373      0.13007         0.159411      0.146308     -0.005226
C      3.19606      3.19606      0.08601         0.250269      0.261041     -0.017496
C      4.25547      4.25547      0.13007        -0.114939     -0.055997      0.011604
C      7.29314      3.19606     10.40319        -0.382462      0.658108      0.008582
C      6.23373      4.25547     10.35913         1.121197     -0.045914      0.047185
O     10.43466      3.58206      8.50569        -0.026716      0.048427      0.446613
O     10.54374     17.39634      8.50569        -0.006597     -0.102198      0.451368
O     10.54374      3.58206     12.47271         0.040780     -0.105516     -0.131938
O     10.43466     17.39634     12.47271        -0.058460     -0.046868     -0.473021
O      8.50569     10.43466      3.58206         0.297296     -0.033143     -0.032614
O      8.50569     10.54374     17.39634         0.702709      0.024797     -0.186507
O     12.47271     10.54374      3.58206        -0.780061     -0.041182      0.149994
O     12.47271     10.43466     17.39634        -0.318264     -0.026749      0.020409
O      3.58206      8.50569     10.43466         0.156930      1.084420     -0.029682
O     17.39634      8.50569     10.54374        -0.094173      0.422198      0.059351
O      3.58206     12.47271     10.54374         0.068849     -0.404514      0.038008
O     17.39634     12.47271     10.43466        -0.160289     -0.687694     -0.005349
O      3.58206     10.43466      8.50569         0.058677     -0.071038      0.778495
O     17.39634     10.54374      8.50569        -0.065491      0.046386      0.339736
O      3.58206     10.54374     12.47271        -0.013820      0.036038     -0.250380
O     17.39634     10.43466     12.47271        -0.249467      0.007809     -0.711683
O     10.43466      8.50569      3.58206         0.116805      0.829883      0.196327
O     10.54374      8.50569     17.39634         0.034764      0.638435     -0.152045
O     10.54374     12.47271      3.58206         0.002215     -1.012844      0.179175
O     10.43466     12.47271     17.39634        -0.032329     -0.913280     -0.203529
O      8.50569      3.58206     10.43466         0.550595      0.116511     -0.016309
O      8.50569     17.39634     10.54374         0.520405     -0.202907     -0.011505
O     12.47271      3.58206     10.54374        -0.469184      0.156933      0.057339
O     12.47271     17.39634     10.43466        -0.409301      0.025435     -0.006262
O     11.90042     11.90042     19.56718        -0.265513     -0.329123      0.255099
O     19.56718     19.56718     19.56718         0.281545      0.290111      0.283994
O     19.56718     11.90042     11.90042         0.299081     -0.301352     -0.202538
O     11.90042     19.56718     11.90042        -0.268042      0.285517     -0.248059
O      9.45224      1.03696      9.45224        -0.079701      0.046889     -0.059301
O      1.03696      9.45224      9.45224         0.041656     -0.155327     -0.118646
O      1.03696      1.03696      1.03696         0.021137      0.117508      0.200431
O      9.45224      9.45224      1.03696        -0.066549     -0.086798      0.120799
Zr     10.48920      2.52580     10.48920        -0.045219     -0.115452     -0.169569
Zr     10.48920     18.45260     10.48920         0.017025      0.216716     -0.022062
Zr     10.48920     10.48920      2.52580        -0.150943     -0.189185     -0.521937
Zr     10.48920     10.48920     18.45260        -0.031280      0.010248      0.453681
Zr      2.52580     10.48920     10.48920        -0.361594      0.290467      0.184267
Zr     18.45260     10.48920     10.48920         0.203014      0.048607     -0.212177
Pd      8.41608      9.77984     13.24218        -0.025369     -0.027637     -0.034825
Pd     10.51637      9.47598     10.19994         0.005389     -0.040784      0.025184
Pd     13.16533      8.73246     12.46699        -0.074592      0.047633     -0.024496
Pd     10.35972     10.73539     15.05980        -0.036023     -0.002009     -0.024633
Pd     12.87466     11.33748     13.52049         0.011407      0.090458     -0.011880
Pd     14.86853     10.67595     11.34527         0.008308     -0.024997      0.001746
Pd      6.85381      7.65238     12.32644         0.003478     -0.047864      0.051303
Pd      9.22040      7.21458      9.49522        -0.002396      0.030558      0.023606
Pd      9.54552      7.55589     12.22235        -0.021954      0.010239      0.010374
Pd     11.74367      7.12419     10.84516         0.038467      0.016741     -0.023148
Pd     11.62884      7.82735      8.27869         0.007994      0.040153      0.045662
Pd      7.15318     11.70857     11.55474         0.006788      0.004902      0.050583
Pd      9.27364     14.32848      9.30029        -0.014939     -0.038981     -0.008028
Pd      8.14746     12.36326     14.09403         0.011749     -0.093873     -0.048467
Pd     14.24286     14.21761      8.33255        -0.064998      0.002988      0.019110
Pd     11.73213     13.33583      8.81058         0.061220     -0.054923     -0.062769
Pd     14.11945     11.65490      8.97862        -0.024459     -0.095779      0.054709
Pd      8.71846     13.97154     12.05136         0.005638      0.000547     -0.001445
Pd     12.21340     13.96255     13.95132         0.007071     -0.030504     -0.005443
Pd     11.39472     14.11120     11.31968         0.020258      0.060021      0.025892
Pd     14.01694     13.33645     12.08548        -0.045000     -0.029035      0.040398
Pd     12.27178     11.54040     10.88355         0.057535     -0.013844     -0.016533
Pd     12.97724     12.63893      6.59260         0.024316     -0.012352      0.025595
Pd     13.95917      8.83859      7.57663        -0.005351      0.009315      0.018287
Pd      6.97835      8.46399      8.42021         0.021797      0.003939     -0.019162
Pd      5.55447     10.04837     10.06312        -0.034981     -0.021747      0.066274
Pd      9.40514      9.46786      7.50707         0.001816      0.018908     -0.049576
Pd      8.48938      6.97772      6.90294        -0.013473      0.025081     -0.007761
Pd      9.64783     11.93881     10.55536         0.006117      0.038234     -0.030827
Pd     11.81972     10.62464      8.05679        -0.064434      0.019053      0.006545
Pd     11.78156      8.94632      5.86543        -0.020605     -0.023863      0.011369
Pd     10.59891     11.34309      5.74964        -0.032455     -0.022800      0.052007
Ir     10.88634      9.76206     12.70119        -0.031887      0.019317      0.009363
Ir     13.17667      9.27705      9.95898        -0.059264     -0.018309     -0.040367
Ir     10.49665     12.22085     12.91304         0.005060      0.002059      0.008855
Ir      7.74007     11.02638      9.06158         0.063606     -0.027619     -0.027931
Ir      9.59652     12.07533      7.98934        -0.031266     -0.029978     -0.000751
Ir      8.03255      9.24534     10.73832        -0.017159     -0.022064     -0.042405
