152
# total energy = -1022.85072140 eVH     10.35389      5.87395      7.64558         0.477647      0.030438      0.913141
H     10.62451     15.10445      7.64558        -0.043468      0.033957      0.763167
H     10.62451      5.87395     13.33282         0.142556      0.116319     -0.603087
H     10.35389     15.10445     13.33282        -0.269621     -0.074482     -0.569218
H      7.64558     10.35389      5.87395         0.335345     -0.037348      0.191316
H      7.64558     10.62451     15.10445         0.615367     -0.186768     -0.139790
H     13.33282     10.62451      5.87395        -0.856550     -0.317702      0.167687
H     13.33282     10.35389     15.10445        -0.468489     -0.094226     -0.056956
H      5.87395      7.64558     10.35389         0.123098      1.126118     -0.144993
H     15.10445      7.64558     10.62451        -0.168548      0.403915     -0.085971
H      5.87395     13.33282     10.62451         0.143570     -0.407223     -0.070874
H     15.10445     13.33282     10.35389        -0.077442     -0.967951     -0.197363
H      5.87395     10.35389      7.64558         0.129553      0.038821      0.481788
H     15.10445     10.62451      7.64558         0.127958     -0.214311      0.808801
H      5.87395     10.62451     13.33282         0.268995     -0.029137     -0.393097
H     15.10445     10.35389     13.33282        -0.144613      0.011520     -0.632812
H     10.35389      7.64558      5.87395         0.066415      0.839111      0.118986
H     10.62451      7.64558     15.10445         0.028930      0.554566     -0.143558
H     10.62451     13.33282      5.87395         0.070492     -0.605403      0.186324
H     10.35389     13.33282     15.10445        -0.254826     -0.888127     -0.106197
H      7.64558      5.87395     10.35389         0.529156      0.037120     -0.137784
H      7.64558     15.10445     10.62451         0.905390     -0.214000      0.298790
H     13.33282      5.87395     10.62451        -0.434433      0.186977     -0.058603
H     13.33282     15.10445     10.35389        -0.997334     -0.100952      0.241005
H     12.45634     12.45634     19.01126         0.267341      0.257817     -0.224100
H     19.01126     19.01126     19.01126        -0.247689     -0.234806     -0.262446
H     19.01126     12.45634     12.45634        -0.241530      0.270342      0.238812
H     12.45634     19.01126     12.45634         0.211052     -0.283435      0.252835
C     10.35284      5.61067      6.59456        -0.129542     -0.430023     -0.420732
C     10.62556     15.36773      6.59456         0.021161      0.346867     -1.142963
C     10.62556      5.61067     14.38384        -0.024548     -0.221462      0.720545
C     10.35284     15.36773     14.38384         0.188936      0.775208      0.138071
C      6.59456     10.35284      5.61067        -0.425160     -0.040600     -0.185670
C      6.59456     10.62556     15.36773        -0.788924      0.147865      0.350824
C     14.38384     10.62556      5.61067         0.637330      0.277799     -0.367963
C     14.38384     10.35284     15.36773         0.742758     -0.122947      0.432587
C      5.61067      6.59456     10.35284        -0.428020     -0.765037      0.270044
C     15.36773      6.59456     10.62556         0.194962     -0.470277      0.046712
C      5.61067     14.38384     10.62556        -0.252615      0.384233     -0.023239
C     15.36773     14.38384     10.35284         0.404361      0.137859      0.185952
C      5.61067     10.35284      6.59456        -0.307300     -0.012376     -0.888385
C     15.36773     10.62556      6.59456         0.563891     -0.147805     -1.231197
C      5.61067     10.62556     14.38384        -0.461824      0.007199      0.899200
C     15.36773     10.35284     14.38384         0.530447     -0.180781      1.251729
C     10.35284      6.59456      5.61067        -0.035319     -0.919625     -0.680284
C     10.62556      6.59456     15.36773         0.041707     -0.660989      0.298580
C     10.62556     14.38384      5.61067         0.042613      1.260207     -0.689868
C     10.35284     14.38384     15.36773         0.091410      0.593204      0.670660
C      6.59456      5.61067     10.35284        -0.228330     -0.893907      0.127376
C      6.59456     15.36773     10.62556        -1.725901      0.495582      0.045267
C     14.38384      5.61067     10.62556         0.577712     -0.222411     -0.006602
C     14.38384     15.36773     10.35284         0.157453      0.554489     -0.242109
C     10.40319      3.19606      7.29314         0.017032      0.922583     -0.254461
C     10.35913      4.25547      6.23373        -0.051948     -0.363405      0.624827
C      0.08601      7.29314      7.29314        -0.009045     -0.237187     -0.472575
C      0.13007      6.23373      6.23373         0.001221      0.115193      0.206070
C      0.08601      3.19606      3.19606        -0.016715      0.651894      0.179697
C      0.13007      4.25547      4.25547        -0.090146     -0.198127     -0.171567
C     10.40319      7.29314      3.19606        -0.000784     -0.696945      0.527514
C     10.35913      6.23373      4.25547        -0.005221      0.527035     -0.386989
C      7.29314     10.40319      3.19606        -0.348284      0.022742      0.849795
C      6.23373     10.35913      4.25547         0.215047      0.015463     -0.143954
C      7.29314      0.08601      7.29314        -0.310511     -0.046731     -0.269507
C      6.23373      0.13007      6.23373         0.267013     -0.059794      0.294646
C      3.19606      0.08601      3.19606         0.437470     -0.052537      1.301780
C      4.25547      0.13007      4.25547        -0.116420     -0.029033     -0.460301
C      3.19606     10.40319      7.29314         0.713561      0.014926     -0.262841
C      4.25547     10.35913      6.23373        -0.137833      0.035151      0.110712
C      3.19606      7.29314     10.40319         0.601614     -1.263116      0.025934
C      4.25547      6.23373     10.35913        -0.714474      0.838590      0.049239
C      7.29314      7.29314      0.08601        -0.662729     -0.170293     -0.022419
C      6.23373      6.23373      0.13007         0.173474      0.266716     -0.009303
C      3.19606      3.19606      0.08601         0.241932      0.253182     -0.019350
C      4.25547      4.25547      0.13007        -0.052135     -0.037124      0.011762
C      7.29314      3.19606     10.40319        -0.373408      0.786866      0.016140
C      6.23373      4.25547     10.35913         0.875022     -0.161148      0.011711
O     10.43466      3.58206      8.50569        -0.050203      0.029138      0.316822
O     10.54374     17.39634      8.50569        -0.024732     -0.182541      0.605284
O     10.54374      3.58206     12.47271         0.055443      0.060471     -0.321623
O     10.43466     17.39634     12.47271        -0.024516     -0.123065     -0.579704
O      8.50569     10.43466      3.58206         0.385991     -0.023132     -0.010761
O      8.50569     10.54374     17.39634         0.471912      0.053633     -0.142776
O     12.47271     10.54374      3.58206        -0.283849      0.049414     -0.078891
O     12.47271     10.43466     17.39634        -0.856938      0.021327     -0.224439
O      3.58206      8.50569     10.43466         0.040871      0.917128      0.037925
O     17.39634      8.50569     10.54374        -0.037531      0.336831      0.078554
O      3.58206     12.47271     10.54374         0.063515     -0.421485      0.063760
O     17.39634     12.47271     10.43466        -0.169980     -0.773241      0.019618
O      3.58206     10.43466      8.50569        -0.057456     -0.066434      0.222483
O     17.39634     10.54374      8.50569        -0.135799      0.042332      0.458539
O      3.58206     10.54374     12.47271        -0.021884     -0.050800     -0.891198
O     17.39634     10.43466     12.47271        -0.197624      0.041148     -0.760120
O     10.43466      8.50569      3.58206         0.045213      0.687774      0.192974
O     10.54374      8.50569     17.39634         0.054161      0.431674     -0.078007
O     10.54374     12.47271      3.58206        -0.009836     -0.732747      0.228397
O     10.43466     12.47271     17.39634         0.050667     -0.860084     -0.276793
O      8.50569      3.58206     10.43466         0.493987      0.077676     -0.038705
O      8.50569     17.39634     10.54374         0.659451     -0.253751     -0.062171
O     12.47271      3.58206     10.54374        -0.486758      0.162950      0.039802
O     12.47271     17.39634     10.43466        -0.526171     -0.038467     -0.029932
O     11.90042     11.90042     19.56718        -0.304385     -0.311986      0.263192
O     19.56718     19.56718     19.56718         0.287571      0.271466      0.321144
O     19.56718     11.90042     11.90042         0.280474     -0.330300     -0.243899
O     11.90042     19.56718     11.90042        -0.228630      0.291171     -0.240682
O      9.45224      1.03696      9.45224        -0.074133      0.049365     -0.066541
O      1.03696      9.45224      9.45224         0.055981     -0.145734     -0.057185
O      1.03696      1.03696      1.03696         0.043074      0.033303      0.188233
O      9.45224      9.45224      1.03696        -0.039473     -0.092138      0.122881
Zr     10.48920      2.52580     10.48920        -0.007518     -0.074785     -0.022942
Zr     10.48920     18.45260     10.48920         0.061104      0.307510     -0.069996
Zr     10.48920     10.48920      2.52580        -0.100485      0.010767     -0.374940
Zr     10.48920     10.48920     18.45260        -0.139311     -0.161149      0.329702
Zr      2.52580     10.48920     10.48920        -0.350344      0.315912     -0.465320
Zr     18.45260     10.48920     10.48920         0.237317      0.039138     -0.263548
Pd      9.04234     10.26901     13.34363        -0.008954     -0.015701     -0.011914
Pd     10.58101      9.72478     10.98828         0.010064      0.005446     -0.041415
Pd     13.76902      8.55197     12.68367        -0.015491      0.014210     -0.008149
Pd     10.99986     11.07982     15.03634         0.001226     -0.025579     -0.024415
Pd     12.86884     11.20247     13.04668         0.017818     -0.001529     -0.002486
Pd     14.97610     10.93558     11.34314        -0.007960      0.013415     -0.016202
Pd      6.66321      7.43809     12.33697        -0.007848      0.020910      0.009546
Pd      9.21746      7.26809     10.13804         0.015790      0.016230     -0.026120
Pd      9.27545      7.62251     12.80702        -0.005307     -0.017192     -0.021794
Pd     11.69884      7.29814     11.46780         0.011775     -0.006915     -0.009819
Pd     11.38026      7.99957      8.85856         0.040117     -0.008893     -0.008596
Pd      7.26121     11.84030     11.96238         0.002235      0.009298     -0.006470
Pd      8.91299     14.68132      9.34327         0.036177      0.008244      0.012314
Pd      8.41598     12.66638     14.32788        -0.007720     -0.013141     -0.006200
Pd     13.52519     14.08335      8.55945         0.088587      0.034795     -0.043908
Pd     10.98639     13.33448      8.52731         0.075851      0.041771      0.039182
Pd     14.08078     11.51460      8.92333         0.006213      0.032113     -0.006128
Pd      8.63256     14.10901     12.10420        -0.004770      0.002331      0.000076
Pd     12.24214     13.75358     14.02790        -0.004341     -0.005445     -0.003394
Pd     11.17498     14.42372     11.15533         0.028630     -0.013266      0.049829
Pd     14.05697     13.56162     12.17116        -0.014800      0.013470     -0.007020
Pd     12.31314     12.12869     10.68637        -0.007548      0.002691      0.013208
Pd     12.64921     12.31958      6.71511         0.034307      0.054290     -0.012687
Pd     13.64570      8.93367      7.91500         0.029384      0.008894     -0.004270
Pd      6.86157      8.47039      8.86105         0.006601      0.003075     -0.010347
Pd      5.52629      9.93922     11.26473        -0.006785      0.027222     -0.040357
Pd      9.13370      9.75791      8.29923         0.048859     -0.024009     -0.010182
Pd      8.82622      7.24426      7.47862        -0.026008     -0.009714     -0.035393
Pd      9.52847     12.08440     10.43404         0.022773      0.002546      0.003238
Pd     11.52362     10.70974      8.57596         0.011942     -0.003318     -0.042618
Pd     11.23098      9.25048      6.43361         0.038993     -0.020612     -0.005225
Pd      9.88808     11.56295      6.37129         0.030880     -0.029183      0.014030
Ir     11.36216      9.12100     13.36671         0.000154      0.017465     -0.039880
Ir     13.07246      9.47542     10.38693         0.010631     -0.000825      0.008672
Ir     10.53810     12.35891     12.72099         0.000433     -0.023149     -0.001110
Ir      7.14307     10.99032      9.51016         0.042489      0.029567     -0.031458
Ir      8.41230     12.46773      8.19236         0.048288      0.004849     -0.004689
Ir      8.06537      9.31319     11.12454         0.018820     -0.010974      0.012109
