35
# total energy = -286.26969632 eVC      6.62434     10.18606      7.54884        -0.021066      0.022379     -0.000890
C      8.01556      9.81789      7.54291        -0.017443      0.046976      0.003977
C      9.29281      5.60118      7.55616        -0.002756      0.004693     -0.002610
C      1.50968      5.32885      7.55807        -0.014005     -0.005456     -0.003905
C      4.17810      0.74393      7.57658         0.019148     -0.025631      0.000823
C      2.78696      1.11131      7.56958        -0.004869      0.004620      0.002259
C      0.70582      4.14587      7.55912        -0.025834      0.015825      0.004361
C      1.10233      2.76251      7.56225        -0.051496      0.007560      0.000510
C      5.34448      1.57146      7.58105        -0.002111      0.008000     -0.002165
C      5.45774      9.35828      7.55417         0.012731      0.010614     -0.002301
C     10.09657      6.78416      7.54718         0.026654     -0.021862      0.002777
C      9.70045      8.16728      7.54225         0.013295      0.012709      0.000240
C      0.75621      6.54127      7.55250        -0.003379     -0.013128      0.000044
C      1.19257      7.91848      7.54758        -0.009372      0.006973      0.002434
C     10.04599      4.38879      7.55590         0.017502      0.014397      0.000102
C      9.60961      3.01161      7.56062         0.022395     -0.010043      0.003877
C      4.23025     10.08680      7.55011         0.014948      0.000737      0.001291
C      2.86235      9.62234      7.54593        -0.012059      0.007053      0.002390
C      6.57228      0.84343      7.57648        -0.019381     -0.018522     -0.001247
C      7.94021      1.30784      7.57000         0.011937     -0.027093      0.003821
N      8.77986      0.22550      7.56630         0.032951      0.046324     -0.000834
N      0.09353      8.73585      7.54439         0.034729      0.027943      0.002114
N      8.44304      8.56968      7.54329         0.005852     -0.037931      0.001987
N      2.35894      2.36028      7.56470         0.035203     -0.000387      0.001315
N      2.02252     10.70438      7.54025        -0.030541     -0.044125      0.002096
N     10.70861      2.19423      7.55917        -0.034378     -0.032151      0.001273
N      2.48454      8.32256      7.54836        -0.013142      0.010431     -0.001131
N      8.31787      2.60749      7.56749         0.008860     -0.006126     -0.002435
O      5.25496      2.86035      7.58849         0.012381     -0.019059     -0.006130
O      5.54769      8.06965      7.56117        -0.018429      0.008310     -0.004354
O      8.00240      5.66432      7.56471         0.019066     -0.009901     -0.001922
O      2.79982      5.26525      7.56216        -0.006369      0.016094     -0.002663
Pd      6.81421      4.08057      7.57738        -0.005555      0.005125     -0.006634
Pd      3.98813      6.84932      7.56086         0.008531     -0.008543     -0.003647
Pd      0.02565     10.73155      7.54007        -0.003995      0.003197      0.005177
