152
# total energy = -1022.82055464 eVH     10.35389      5.87395      7.64558         0.476867      0.032578      0.910863
H     10.62451     15.10445      7.64558        -0.043370      0.039080      0.765884
H     10.62451      5.87395     13.33282         0.143128      0.115424     -0.603898
H     10.35389     15.10445     13.33282        -0.269027     -0.076656     -0.567330
H      7.64558     10.35389      5.87395         0.333976     -0.037491      0.191244
H      7.64558     10.62451     15.10445         0.615465     -0.186768     -0.142266
H     13.33282     10.62451      5.87395        -0.861088     -0.320508      0.166667
H     13.33282     10.35389     15.10445        -0.467935     -0.090692     -0.062791
H      5.87395      7.64558     10.35389         0.124958      1.132113     -0.142910
H     15.10445      7.64558     10.62451        -0.170108      0.402884     -0.085369
H      5.87395     13.33282     10.62451         0.143016     -0.407202     -0.071648
H     15.10445     13.33282     10.35389        -0.076974     -0.967726     -0.198547
H      5.87395     10.35389      7.64558         0.129270      0.038441      0.479999
H     15.10445     10.62451      7.64558         0.131070     -0.216709      0.803879
H      5.87395     10.62451     13.33282         0.270492     -0.028063     -0.395277
H     15.10445     10.35389     13.33282        -0.143928      0.012810     -0.623359
H     10.35389      7.64558      5.87395         0.066102      0.834899      0.121005
H     10.62451      7.64558     15.10445         0.026872      0.563843     -0.146692
H     10.62451     13.33282      5.87395         0.070580     -0.605510      0.182982
H     10.35389     13.33282     15.10445        -0.250514     -0.887592     -0.107862
H      7.64558      5.87395     10.35389         0.526850      0.037739     -0.137565
H      7.64558     15.10445     10.62451         0.913653     -0.210520      0.296059
H     13.33282      5.87395     10.62451        -0.435222      0.187418     -0.058129
H     13.33282     15.10445     10.35389        -0.999651     -0.098818      0.248656
H     12.45634     12.45634     19.01126         0.267246      0.257534     -0.224256
H     19.01126     19.01126     19.01126        -0.247664     -0.235000     -0.262395
H     19.01126     12.45634     12.45634        -0.241642      0.270120      0.239036
H     12.45634     19.01126     12.45634         0.210906     -0.283372      0.252896
C     10.35284      5.61067      6.59456        -0.131928     -0.426426     -0.419158
C     10.62556     15.36773      6.59456         0.020603      0.346400     -1.148265
C     10.62556      5.61067     14.38384        -0.025798     -0.223392      0.722975
C     10.35284     15.36773     14.38384         0.188924      0.771934      0.139765
C      6.59456     10.35284      5.61067        -0.421560     -0.041165     -0.183555
C      6.59456     10.62556     15.36773        -0.785199      0.149106      0.351300
C     14.38384     10.62556      5.61067         0.639858      0.281295     -0.363952
C     14.38384     10.35284     15.36773         0.736640     -0.123297      0.427747
C      5.61067      6.59456     10.35284        -0.427310     -0.770179      0.272246
C     15.36773      6.59456     10.62556         0.197577     -0.470773      0.045355
C      5.61067     14.38384     10.62556        -0.255450      0.380152     -0.022982
C     15.36773     14.38384     10.35284         0.404267      0.140310      0.188950
C      5.61067     10.35284      6.59456        -0.308415     -0.012247     -0.888740
C     15.36773     10.62556      6.59456         0.567612     -0.148526     -1.232334
C      5.61067     10.62556     14.38384        -0.464084      0.007655      0.906056
C     15.36773     10.35284     14.38384         0.529354     -0.175095      1.245849
C     10.35284      6.59456      5.61067        -0.037459     -0.911433     -0.675573
C     10.62556      6.59456     15.36773         0.044500     -0.669991      0.300335
C     10.62556     14.38384      5.61067         0.042435      1.257541     -0.691316
C     10.35284     14.38384     15.36773         0.092101      0.594574      0.666158
C      6.59456      5.61067     10.35284        -0.226458     -0.897328      0.128135
C      6.59456     15.36773     10.62556        -1.729373      0.495270      0.043741
C     14.38384      5.61067     10.62556         0.579556     -0.223920     -0.007504
C     14.38384     15.36773     10.35284         0.163253      0.557221     -0.238235
C     10.40319      3.19606      7.29314         0.016454      0.916632     -0.252945
C     10.35913      4.25547      6.23373        -0.052093     -0.363471      0.621699
C      0.08601      7.29314      7.29314        -0.008912     -0.236763     -0.471882
C      0.13007      6.23373      6.23373         0.002380      0.117329      0.208170
C      0.08601      3.19606      3.19606        -0.016615      0.645145      0.179438
C      0.13007      4.25547      4.25547        -0.090930     -0.199717     -0.169657
C     10.40319      7.29314      3.19606        -0.000966     -0.693008      0.530039
C     10.35913      6.23373      4.25547        -0.004208      0.523619     -0.386227
C      7.29314     10.40319      3.19606        -0.346296      0.023248      0.848045
C      6.23373     10.35913      4.25547         0.212091      0.014804     -0.143701
C      7.29314      0.08601      7.29314        -0.308306     -0.046498     -0.268391
C      6.23373      0.13007      6.23373         0.265969     -0.059278      0.292359
C      3.19606      0.08601      3.19606         0.433659     -0.052700      1.301133
C      4.25547      0.13007      4.25547        -0.116604     -0.028568     -0.462008
C      3.19606     10.40319      7.29314         0.710667      0.015363     -0.264025
C      4.25547     10.35913      6.23373        -0.137366      0.033811      0.109259
C      3.19606      7.29314     10.40319         0.604056     -1.264535      0.026348
C      4.25547      6.23373     10.35913        -0.718085      0.838167      0.047655
C      7.29314      7.29314      0.08601        -0.660370     -0.168832     -0.022855
C      6.23373      6.23373      0.13007         0.171494      0.270117     -0.009740
C      3.19606      3.19606      0.08601         0.241133      0.250435     -0.019783
C      4.25547      4.25547      0.13007        -0.052346     -0.036164      0.012535
C      7.29314      3.19606     10.40319        -0.372981      0.786197      0.016068
C      6.23373      4.25547     10.35913         0.875395     -0.159271      0.011434
O     10.43466      3.58206      8.50569        -0.049974      0.030428      0.317549
O     10.54374     17.39634      8.50569        -0.024537     -0.182940      0.605231
O     10.54374      3.58206     12.47271         0.055298      0.061895     -0.322915
O     10.43466     17.39634     12.47271        -0.024143     -0.124834     -0.582089
O      8.50569     10.43466      3.58206         0.386326     -0.023616     -0.010355
O      8.50569     10.54374     17.39634         0.470344      0.053636     -0.143170
O     12.47271     10.54374      3.58206        -0.282565      0.049845     -0.077666
O     12.47271     10.43466     17.39634        -0.856232      0.021152     -0.224342
O      3.58206      8.50569     10.43466         0.040178      0.916127      0.039391
O     17.39634      8.50569     10.54374        -0.038271      0.336636      0.078070
O      3.58206     12.47271     10.54374         0.064007     -0.420208      0.063861
O     17.39634     12.47271     10.43466        -0.169890     -0.772960      0.018716
O      3.58206     10.43466      8.50569        -0.056765     -0.066506      0.225386
O     17.39634     10.54374      8.50569        -0.136245      0.042183      0.457482
O      3.58206     10.54374     12.47271        -0.020628     -0.051988     -0.888954
O     17.39634     10.43466     12.47271        -0.197651      0.040584     -0.760720
O     10.43466      8.50569      3.58206         0.044731      0.684065      0.191925
O     10.54374      8.50569     17.39634         0.053898      0.431708     -0.078381
O     10.54374     12.47271      3.58206        -0.008917     -0.729066      0.228271
O     10.43466     12.47271     17.39634         0.050041     -0.856371     -0.276775
O      8.50569      3.58206     10.43466         0.493974      0.077562     -0.038600
O      8.50569     17.39634     10.54374         0.657307     -0.253377     -0.061313
O     12.47271      3.58206     10.54374        -0.486604      0.163485      0.039808
O     12.47271     17.39634     10.43466        -0.529104     -0.039442     -0.030114
O     11.90042     11.90042     19.56718        -0.304629     -0.312305      0.263680
O     19.56718     19.56718     19.56718         0.287353      0.271396      0.320972
O     19.56718     11.90042     11.90042         0.280673     -0.330544     -0.244719
O     11.90042     19.56718     11.90042        -0.228262      0.290665     -0.240720
O      9.45224      1.03696      9.45224        -0.074158      0.048412     -0.067016
O      1.03696      9.45224      9.45224         0.055891     -0.145351     -0.056767
O      1.03696      1.03696      1.03696         0.043897      0.032361      0.187355
O      9.45224      9.45224      1.03696        -0.039322     -0.092578      0.121989
Zr     10.48920      2.52580     10.48920        -0.007942     -0.073821     -0.022088
Zr     10.48920     18.45260     10.48920         0.059065      0.308655     -0.071778
Zr     10.48920     10.48920      2.52580        -0.103570      0.013799     -0.372496
Zr     10.48920     10.48920     18.45260        -0.136601     -0.159139      0.328741
Zr      2.52580     10.48920     10.48920        -0.345899      0.317799     -0.466108
Zr     18.45260     10.48920     10.48920         0.238185      0.040055     -0.260032
Pd      9.04322     10.26769     13.33835        -0.012343     -0.005919      0.004536
Pd     10.59104      9.73215     10.99614         0.004801     -0.008748     -0.067844
Pd     13.75832      8.55296     12.68347         0.015914      0.002765     -0.017581
Pd     11.00051     11.07981     15.02922        -0.000357     -0.027155     -0.026967
Pd     12.86486     11.19735     13.03809         0.015530      0.001719      0.007177
Pd     14.97276     10.93427     11.34137         0.014981      0.016934     -0.003107
Pd      6.65953      7.43701     12.33861        -0.004800      0.023803      0.002002
Pd      9.22168      7.26536     10.13818         0.011943      0.009482     -0.031446
Pd      9.26963      7.61628     12.80773         0.001915     -0.013759     -0.021450
Pd     11.69587      7.29157     11.46753         0.005659      0.000078     -0.016978
Pd     11.38113      7.99916      8.86093         0.037124     -0.014661      0.002892
Pd      7.26016     11.84073     11.96440         0.003026     -0.006642     -0.024217
Pd      8.90666     14.67753      9.33869         0.028920      0.022863      0.019549
Pd      8.41970     12.66424     14.32692         0.001669     -0.009768     -0.015272
Pd     13.52063     14.08302      8.56448         0.086055      0.030718     -0.048390
Pd     10.97986     13.33419      8.52204         0.090631      0.035214      0.038033
Pd     14.08143     11.51236      8.92422         0.009610      0.050332     -0.009774
Pd      8.62573     14.11165     12.10332         0.015218     -0.016214      0.010141
Pd     12.24432     13.75172     14.02609        -0.013154     -0.015966     -0.004060
Pd     11.16674     14.43023     11.15250         0.020431     -0.016687      0.047803
Pd     14.05998     13.56017     12.17229        -0.010103      0.006592     -0.002674
Pd     12.31477     12.14344     10.68086        -0.006842     -0.017777      0.002613
Pd     12.65583     12.31923      6.71886         0.018751      0.046544     -0.015438
Pd     13.64196      8.93461      7.91512         0.048735      0.000185     -0.017659
Pd      6.85881      8.46844      8.86100         0.015173      0.010019     -0.007247
Pd      5.52793      9.93297     11.27081         0.020172      0.036045     -0.054108
Pd      9.13534      9.75355      8.30407         0.032775     -0.029791     -0.011460
Pd      8.82136      7.24032      7.48012        -0.015860     -0.009605     -0.039253
Pd      9.52652     12.08452     10.43136         0.027906      0.000919      0.020596
Pd     11.52333     10.70860      8.57991         0.017966      0.024179     -0.018525
Pd     11.23211      9.25116      6.43794         0.034234     -0.030673     -0.024395
Pd      9.89142     11.56301      6.38258         0.032331     -0.026501     -0.023451
Ir     11.35725      9.11216     13.36670        -0.014986      0.023205     -0.002859
Ir     13.07444      9.47372     10.38658        -0.005433     -0.006276      0.027628
Ir     10.54042     12.36066     12.71503        -0.021648     -0.000863      0.022266
Ir      7.13948     10.98647      9.51290         0.032804      0.004736     -0.000088
Ir      8.40609     12.46241      8.19432         0.032799      0.017563     -0.020301
Ir      8.07136      9.30846     11.12268        -0.015004      0.009702     -0.000848
