152
# total energy = -1061.09729581 eVH     10.35389      5.87395      7.64558        -0.478230      0.165420      1.191927
H     10.62451     15.10445      7.64558         0.082053     -0.084024      0.800083
H     10.62451      5.87395     13.33282        -0.230734      0.061076     -0.577746
H     10.35389     15.10445     13.33282         0.000360     -0.298694     -0.488290
H      7.64558     10.35389      5.87395         0.719662      0.014676      0.211704
H      7.64558     10.62451     15.10445         0.195330     -0.002497     -0.058303
H     13.33282     10.62451      5.87395        -0.602027     -0.058195      0.152009
H     13.33282     10.35389     15.10445        -0.316261     -0.070371     -0.072497
H      5.87395      7.64558     10.35389         0.127946      0.363490     -0.028355
H     15.10445      7.64558     10.62451        -0.119091      0.786203      0.372364
H      5.87395     13.33282     10.62451         0.131094     -0.542496     -0.014122
H     15.10445     13.33282     10.35389        -0.246505     -0.494356      0.126648
H      5.87395     10.35389      7.64558         0.245261      0.144852      0.360069
H     15.10445     10.62451      7.64558        -0.182312     -0.076735      0.331934
H      5.87395     10.62451     13.33282         0.016115      0.167433     -0.745178
H     15.10445     10.35389     13.33282         0.045417     -0.242934     -0.659987
H     10.35389      7.64558      5.87395        -0.099448      0.446954      0.270094
H     10.62451      7.64558     15.10445         0.406517      0.768406     -0.110442
H     10.62451     13.33282      5.87395         0.353011     -0.581404      0.120289
H     10.35389     13.33282     15.10445         0.135347     -0.561274     -0.105712
H      7.64558      5.87395     10.35389         0.451005      0.157975     -0.005968
H      7.64558     15.10445     10.62451         0.441997     -0.164629      0.292222
H     13.33282      5.87395     10.62451        -0.327472      0.115319      0.014302
H     13.33282     15.10445     10.35389        -0.540327     -0.233712      0.196526
H     12.45634     12.45634     19.01126         0.244817      0.266257     -0.237546
H     19.01126     19.01126     19.01126        -0.253234     -0.263499     -0.231669
H     19.01126     12.45634     12.45634        -0.231660      0.262634      0.248896
H     12.45634     19.01126     12.45634         0.295243     -0.210599      0.241111
C     10.35284      5.61067      6.59456         0.443999     -0.386727     -1.150739
C     10.62556     15.36773      6.59456        -0.170718      0.780792     -0.610108
C     10.62556      5.61067     14.38384         0.317626     -0.281317      0.563945
C     10.35284     15.36773     14.38384        -0.129942      0.325096      0.644855
C      6.59456     10.35284      5.61067        -0.655752     -0.145267     -0.188843
C      6.59456     10.62556     15.36773        -0.546202      0.072413      0.358692
C     14.38384     10.62556      5.61067         1.001438      0.028803     -0.446359
C     14.38384     10.35284     15.36773         0.290016     -0.081141      0.341296
C      5.61067      6.59456     10.35284        -0.364065     -0.497448      0.026494
C     15.36773      6.59456     10.62556         0.202259     -0.813308     -0.288934
C      5.61067     14.38384     10.62556        -0.213931      0.620856     -0.251206
C     15.36773     14.38384     10.35284         0.359107      0.869061     -0.139313
C      5.61067     10.35284      6.59456        -0.222101     -0.140508     -0.329006
C     15.36773     10.62556      6.59456         0.195128      0.069832     -0.305212
C      5.61067     10.62556     14.38384        -0.417688     -0.041525      1.301823
C     15.36773     10.35284     14.38384         0.261881     -0.037306      0.954219
C     10.35284      6.59456      5.61067        -0.028679     -0.316200     -0.483534
C     10.62556      6.59456     15.36773        -0.068147     -0.922109      0.292006
C     10.62556     14.38384      5.61067        -0.342553     -0.127004     -0.756119
C     10.35284     14.38384     15.36773        -0.246790      0.852341      0.279217
C      6.59456      5.61067     10.35284        -0.470727     -0.318567      0.126944
C      6.59456     15.36773     10.62556        -0.493855      0.528346      0.041187
C     14.38384      5.61067     10.62556         0.298321     -0.371045      0.117807
C     14.38384     15.36773     10.35284         0.847467      0.329281     -0.057875
C     10.40319      3.19606      7.29314         0.006142      0.691390     -0.379078
C     10.35913      4.25547      6.23373         0.011533     -0.520233      0.336861
C      0.08601      7.29314      7.29314        -0.021613     -0.708003     -0.533095
C      0.13007      6.23373      6.23373        -0.118917      0.858593      0.165568
C      0.08601      3.19606      3.19606        -0.023600      0.329631      0.364412
C      0.13007      4.25547      4.25547         0.054745     -0.164319     -0.655101
C     10.40319      7.29314      3.19606        -0.039091     -1.128804      1.043408
C     10.35913      6.23373      4.25547         0.022952      0.341761     -0.198608
C      7.29314     10.40319      3.19606        -0.855411     -0.048398      0.370751
C      6.23373     10.35913      4.25547         0.232830      0.040932     -0.487291
C      7.29314      0.08601      7.29314        -0.903054      0.006887     -0.404442
C      6.23373      0.13007      6.23373         0.117831      0.009284      0.092858
C      3.19606      0.08601      3.19606         0.369716     -0.002634      0.353190
C      4.25547      0.13007      4.25547        -0.258740     -0.046609     -0.180135
C      3.19606     10.40319      7.29314         0.489542     -0.043954     -1.138843
C      4.25547     10.35913      6.23373        -0.269480     -0.037994      0.131812
C      3.19606      7.29314     10.40319         0.757889     -0.484243      0.015543
C      4.25547      6.23373     10.35913        -0.110998      0.162077      0.000155
C      7.29314      7.29314      0.08601        -0.408763     -0.276198     -0.010283
C      6.23373      6.23373      0.13007         0.339775      0.084766     -0.159841
C      3.19606      3.19606      0.08601         0.340813      0.674537     -0.012006
C      4.25547      4.25547      0.13007        -0.343479     -0.268825      0.039029
C      7.29314      3.19606     10.40319        -0.214292      0.598018      0.017521
C      6.23373      4.25547     10.35913         0.085561     -0.228059     -0.014970
O     10.43466      3.58206      8.50569        -0.021108      0.091881      0.343579
O     10.54374     17.39634      8.50569         0.071928     -0.022806      0.402101
O     10.54374      3.58206     12.47271         0.049204      0.201389     -0.557631
O     10.43466     17.39634     12.47271         0.040760      0.022263     -0.530878
O      8.50569     10.43466      3.58206         0.648166     -0.073495      0.090399
O      8.50569     10.54374     17.39634         0.876230      0.049578     -0.134561
O     12.47271     10.54374      3.58206        -0.356803      0.049106      0.039857
O     12.47271     10.43466     17.39634        -0.337674     -0.013170      0.076617
O      3.58206      8.50569     10.43466         0.004107      0.425823     -0.081681
O     17.39634      8.50569     10.54374        -0.125701      0.414509      0.027816
O      3.58206     12.47271     10.54374         0.130938     -0.674793     -0.009243
O     17.39634     12.47271     10.43466        -0.257326     -0.682084     -0.011093
O      3.58206     10.43466      8.50569         0.135841     -0.045733      0.866946
O     17.39634     10.54374      8.50569         0.019362      0.044928      0.314524
O      3.58206     10.54374     12.47271         0.062788      0.017601     -0.431377
O     17.39634     10.43466     12.47271        -0.054851      0.017258     -0.375182
O     10.43466      8.50569      3.58206        -0.070273      0.560510     -0.127210
O     10.54374      8.50569     17.39634         0.028185      0.755254     -0.138903
O     10.54374     12.47271      3.58206         0.053114     -0.360685      0.090592
O     10.43466     12.47271     17.39634        -0.064122     -0.720885     -0.239222
O      8.50569      3.58206     10.43466         0.330215      0.053890     -0.058776
O      8.50569     17.39634     10.54374         0.526810     -0.140404      0.018972
O     12.47271      3.58206     10.54374        -0.429125      0.107623      0.014837
O     12.47271     17.39634     10.43466        -0.594428     -0.081244      0.046341
O     11.90042     11.90042     19.56718        -0.250677     -0.279345      0.216519
O     19.56718     19.56718     19.56718         0.295233      0.299065      0.256070
O     19.56718     11.90042     11.90042         0.242590     -0.291601     -0.304615
O     11.90042     19.56718     11.90042        -0.291175      0.165066     -0.252181
O      9.45224      1.03696      9.45224        -0.108683      0.121669     -0.092383
O      1.03696      9.45224      9.45224         0.140536     -0.140478     -0.141788
O      1.03696      1.03696      1.03696         0.152206      0.190306     -0.031605
O      9.45224      9.45224      1.03696        -0.184294     -0.203943      0.030998
Zr     10.48920      2.52580     10.48920         0.022127     -0.250415      0.230558
Zr     10.48920     18.45260     10.48920        -0.232508      0.274974     -0.311212
Zr     10.48920     10.48920      2.52580         0.174427      0.508726     -0.185240
Zr     10.48920     10.48920     18.45260         0.002335     -0.123345      0.456958
Zr      2.52580     10.48920     10.48920        -0.516173      0.087595      0.399611
Zr     18.45260     10.48920     10.48920         0.235035     -0.169295      0.055970
Pd      9.10683     14.47703      9.14151        -0.083481      0.118385      0.025424
Pd      8.25738     13.24418     13.70422         0.060657      0.095157      0.047402
Pd     11.85029     14.43036      8.89682         0.011501     -0.170922     -0.012199
Pd     12.24181     12.81179     10.89815         0.100715     -0.059008      0.065502
Pd     11.92861      7.12493     12.26438        -0.048776      0.009422     -0.138344
Pd     10.95983     15.26622     11.28013        -0.024938     -0.020018     -0.095342
Pd      9.50816     13.07117     11.34606         0.161857     -0.037338      0.057664
Pd     13.77075     12.64437      8.39616         0.204441     -0.033215     -0.073795
Pd     11.73095     11.65952      6.86124         0.161074      0.060016     -0.158608
Pd      7.53754      8.35132      7.38905        -0.037299      0.109083     -0.030200
Pd      8.83679     11.93077      6.87912        -0.013373     -0.075555      0.041559
Pd      9.83805      9.72944      8.06413        -0.000337      0.131826      0.047156
Pd      8.49682     14.55068      6.46171        -0.007349      0.057524      0.112904
Pd     12.22678      8.94451      7.03766         0.015051      0.061295     -0.121134
Pd     10.25218      9.93594      5.44704        -0.194627     -0.076061     -0.038793
Pd      6.88074      9.16990     12.25858         0.018146      0.007590      0.007058
Pd     12.22858      6.40602      7.89974         0.095978      0.027225      0.050195
Pd      5.64989     10.54179      9.95561        -0.061063      0.021121      0.019533
Pd      7.63599      6.72677     13.02306         0.031162     -0.068281     -0.034800
Ir     11.30852      9.62593     12.94377        -0.192067      0.086030      0.215871
Ir     13.16707      9.20658     11.27645         0.151435      0.224993      0.070935
Ir      9.17867      8.54529     13.95282         0.116549      0.210728      0.004345
Ir     10.27571     10.56567     15.12859        -0.062192     -0.061918     -0.105695
Ir      7.04978     11.80729     11.76321        -0.203123      0.104317     -0.126320
Ir     14.55973     11.11245     10.47609        -0.269433     -0.064866      0.004940
Ir     12.41085     10.51803      9.20960         0.056175     -0.025740      0.068262
Ir      8.87933     10.83712     12.92572         0.405625     -0.269791      0.222333
Ir     10.04663     10.23813     10.70403        -0.012521     -0.016554      0.013947
Ir     13.27812     11.30005     12.65758         0.103756     -0.001996     -0.090756
Ir     11.05046     12.14642     13.29274        -0.005334     -0.175962      0.031702
Ir      8.04257     11.60329      9.46823        -0.108014      0.061787     -0.171164
Ir     11.38065      8.11275      9.73345        -0.279038     -0.095594     -0.153983
Ir      6.98502     13.32108      8.17774        -0.039904     -0.085440      0.052965
Ir      9.20733      7.18662      9.03813         0.000910      0.049939      0.017254
Ir      7.84694      9.10954      9.86281         0.104233     -0.207248     -0.086825
Ir     10.46525     12.23186      8.99095         0.071053     -0.037837      0.110501
Ir      9.41741      7.86250     11.50431         0.002593      0.014684     -0.179284
Ir     13.79995      8.23362      8.99163         0.050879      0.274699     -0.027706
