152
# total energy = -1005.95604216 eVH     10.35389      5.87395      7.64558         0.203442      0.053484      0.606264
H     10.62451     15.10445      7.64558        -0.103289     -0.151666      0.529363
H     10.62451      5.87395     13.33282         0.492903      0.122874     -0.602610
H     10.35389     15.10445     13.33282         0.061817     -0.184985     -0.529201
H      7.64558     10.35389      5.87395         0.363997      0.030105      0.172901
H      7.64558     10.62451     15.10445         0.683463      0.476012     -0.044101
H     13.33282     10.62451      5.87395        -0.506769      0.392121      0.082689
H     13.33282     10.35389     15.10445        -0.790194     -0.079567     -0.009226
H      5.87395      7.64558     10.35389         0.274951      1.007057     -0.079731
H     15.10445      7.64558     10.62451        -0.100895      0.484040      0.279586
H      5.87395     13.33282     10.62451         0.153027     -0.693358     -0.170245
H     15.10445     13.33282     10.35389        -0.010929     -1.044259     -0.311189
H      5.87395     10.35389      7.64558         0.233833      0.043955      0.503136
H     15.10445     10.62451      7.64558        -0.120713      0.423861      0.788563
H      5.87395     10.62451     13.33282         0.149409      0.351994     -0.689478
H     15.10445     10.35389     13.33282        -0.050733     -0.058587     -0.693618
H     10.35389      7.64558      5.87395         0.324840      1.090720      0.019535
H     10.62451      7.64558     15.10445         0.524589      0.530233     -0.116889
H     10.62451     13.33282      5.87395        -0.405547     -0.824588      0.208961
H     10.35389     13.33282     15.10445        -0.040892     -0.436586     -0.224984
H      7.64558      5.87395     10.35389         0.858240      0.071339     -0.257183
H      7.64558     15.10445     10.62451         0.828005     -0.201763     -0.017291
H     13.33282      5.87395     10.62451        -0.780031      0.188458      0.590228
H     13.33282     15.10445     10.35389        -0.427400     -0.105071     -0.128913
H     12.45634     12.45634     19.01126         0.237454      0.268860     -0.239794
H     19.01126     19.01126     19.01126        -0.260907     -0.241262     -0.261990
H     19.01126     12.45634     12.45634        -0.268005      0.267096      0.221192
H     12.45634     19.01126     12.45634         0.233298     -0.259769      0.273193
C     10.35284      5.61067      6.59456        -0.396691     -0.679578      0.041213
C     10.62556     15.36773      6.59456         0.068248      0.367828     -0.304480
C     10.62556      5.61067     14.38384        -0.327515     -0.392362     -0.261687
C     10.35284     15.36773     14.38384        -0.003220      0.302295      0.528518
C      6.59456     10.35284      5.61067        -0.340266     -0.003259     -0.266840
C      6.59456     10.62556     15.36773        -0.255377     -0.213833      0.788490
C     14.38384     10.62556      5.61067        -0.221367     -0.401466     -0.525172
C     14.38384     10.35284     15.36773         0.957283     -0.070900      0.231156
C      5.61067      6.59456     10.35284        -0.549326     -0.048186     -0.195688
C     15.36773      6.59456     10.62556         0.553492     -0.001831     -0.247575
C      5.61067     14.38384     10.62556        -0.309772      0.982990      0.077393
C     15.36773     14.38384     10.35284         0.276153      1.044472      0.055257
C      5.61067     10.35284      6.59456        -0.213138     -0.079285     -0.613747
C     15.36773     10.62556      6.59456         0.428781     -0.254806      0.116987
C      5.61067     10.62556     14.38384        -0.668766     -0.348633     -0.122808
C     15.36773     10.35284     14.38384         0.389344     -0.060947      1.023083
C     10.35284      6.59456      5.61067        -0.225922     -0.428532     -0.610942
C     10.62556      6.59456     15.36773        -0.261635      0.150529      0.448987
C     10.62556     14.38384      5.61067         0.211292      1.047602     -0.336675
C     10.35284     14.38384     15.36773         0.006195      0.576700      0.399328
C      6.59456      5.61067     10.35284        -0.060808     -0.907663      0.280817
C      6.59456     15.36773     10.62556        -1.004564      0.269305      0.084533
C     14.38384      5.61067     10.62556         0.462087     -0.540120     -0.376716
C     14.38384     15.36773     10.35284         0.208166      0.447704     -0.087337
C     10.40319      3.19606      7.29314         0.016178      0.671158     -0.488760
C     10.35913      4.25547      6.23373         0.088123     -0.641725      0.024737
C      0.08601      7.29314      7.29314        -0.042825     -0.407065     -0.324700
C      0.13007      6.23373      6.23373        -0.027709      0.095706      0.568840
C      0.08601      3.19606      3.19606        -0.002255      1.312313      0.288710
C      0.13007      4.25547      4.25547         0.051602     -0.772013     -0.174832
C     10.40319      7.29314      3.19606         0.011500     -0.311425      0.302646
C     10.35913      6.23373      4.25547         0.022382      0.022703     -0.779047
C      7.29314     10.40319      3.19606        -0.281679      0.021307      0.562668
C      6.23373     10.35913      4.25547         0.172621      0.057254     -0.074210
C      7.29314      0.08601      7.29314        -0.508883     -0.066401     -0.375340
C      6.23373      0.13007      6.23373         0.684809     -0.066713      0.469024
C      3.19606      0.08601      3.19606         0.825364     -0.028781      0.586870
C      4.25547      0.13007      4.25547        -0.594983     -0.085669     -0.536983
C      3.19606     10.40319      7.29314         0.468830     -0.008576     -0.734708
C      4.25547     10.35913      6.23373        -0.303466      0.073005      0.190969
C      3.19606      7.29314     10.40319         0.298336     -1.296252      0.045868
C      4.25547      6.23373     10.35913        -0.916819      0.102004      0.130837
C      7.29314      7.29314      0.08601        -0.410582     -0.380055     -0.024181
C      6.23373      6.23373      0.13007         0.452181      0.224787     -0.008953
C      3.19606      3.19606      0.08601         0.482640      0.373651     -0.042275
C      4.25547      4.25547      0.13007        -0.152666     -0.645351     -0.036030
C      7.29314      3.19606     10.40319        -0.339233      0.450027      0.071366
C      6.23373      4.25547     10.35913         0.312544     -0.681824      0.148695
O     10.43466      3.58206      8.50569        -0.014183      0.109176      0.507961
O     10.54374     17.39634      8.50569         0.033898     -0.175455      0.496879
O     10.54374      3.58206     12.47271         0.047594     -0.099789     -0.178551
O     10.43466     17.39634     12.47271        -0.039132     -0.184188     -0.522705
O      8.50569     10.43466      3.58206         0.281333     -0.012452      0.017952
O      8.50569     10.54374     17.39634         0.623370      0.036359     -0.144617
O     12.47271     10.54374      3.58206        -0.763239      0.090092      0.097186
O     12.47271     10.43466     17.39634        -0.439660      0.022194     -0.108471
O      3.58206      8.50569     10.43466         0.154778      1.044502     -0.031097
O     17.39634      8.50569     10.54374        -0.161021      0.544313      0.076374
O      3.58206     12.47271     10.54374         0.087708     -0.374011      0.051941
O     17.39634     12.47271     10.43466        -0.155211     -0.544252     -0.023414
O      3.58206     10.43466      8.50569         0.082026     -0.070064      0.585460
O     17.39634     10.54374      8.50569        -0.110776      0.068128      0.527260
O      3.58206     10.54374     12.47271         0.017575      0.041093     -0.507714
O     17.39634     10.43466     12.47271        -0.228989     -0.039885     -0.625044
O     10.43466      8.50569      3.58206        -0.038152      0.444052      0.139849
O     10.54374      8.50569     17.39634         0.050241      0.535383     -0.157199
O     10.54374     12.47271      3.58206         0.018267     -1.040629      0.186699
O     10.43466     12.47271     17.39634         0.037617     -0.709024     -0.174322
O      8.50569      3.58206     10.43466         0.523959      0.148840     -0.056225
O      8.50569     17.39634     10.54374         0.486607     -0.194860      0.014742
O     12.47271      3.58206     10.54374        -0.624141      0.222395      0.007139
O     12.47271     17.39634     10.43466        -0.234169      0.062933     -0.048332
O     11.90042     11.90042     19.56718        -0.242539     -0.287145      0.249059
O     19.56718     19.56718     19.56718         0.309751      0.296053      0.303040
O     19.56718     11.90042     11.90042         0.296935     -0.264022     -0.233699
O     11.90042     19.56718     11.90042        -0.240276      0.293996     -0.320147
O      9.45224      1.03696      9.45224        -0.017186      0.090784     -0.072935
O      1.03696      9.45224      9.45224         0.091244     -0.090181     -0.131290
O      1.03696      1.03696      1.03696         0.094071      0.188564      0.054116
O      9.45224      9.45224      1.03696        -0.105953     -0.106150      0.037282
Zr     10.48920      2.52580     10.48920        -0.130354     -0.287009     -0.030419
Zr     10.48920     18.45260     10.48920        -0.067913      0.212527      0.063774
Zr     10.48920     10.48920      2.52580        -0.030153     -0.400955     -0.270142
Zr     10.48920     10.48920     18.45260        -0.267790     -0.105698      0.318290
Zr      2.52580     10.48920     10.48920        -0.383643      0.231375      0.250326
Zr     18.45260     10.48920     10.48920         0.232751      0.001908     -0.215656
Pd     13.57965      8.92232      9.26886         0.003790      0.006985     -0.008178
Pd      5.63845      9.87571     10.17622         0.000640      0.003859     -0.018886
Pd      6.78899     11.85555     11.67928        -0.004825      0.001085      0.001947
Pd     12.12353     13.03043      7.33197        -0.010154      0.002836      0.011539
Pd     11.91173      7.76138      7.42616        -0.000432     -0.003258      0.003873
Pd      8.29971      6.95132      6.59057         0.002788     -0.016521      0.001051
Pd     10.74315     11.18771      5.62440        -0.007128      0.001784      0.001057
Pd     14.43561      8.55123      6.78062        -0.002278     -0.000504     -0.005013
Pd      9.69300     11.76018      8.07041        -0.004172     -0.006357      0.002949
Pd      6.77689      6.80856     12.30618         0.010311     -0.001965     -0.000950
Pd      6.46033      7.83890      8.22581         0.008945      0.020324     -0.021231
Pd      6.52653      8.50296     14.33505         0.017995      0.006479     -0.005939
Pd     11.50204      6.50705      9.84694        -0.001666      0.004897      0.011773
Pd      9.57664      9.24381      7.11568        -0.003231     -0.007251     -0.002816
Pd      8.99947     14.00351      9.29513        -0.002228     -0.007711      0.008749
Pd      9.52491      7.35918     11.72989        -0.010405      0.003890      0.001232
Pd     10.57828      8.98595      9.67565         0.005712      0.001334     -0.001531
Pd      9.32728     11.52242     10.64996         0.000727     -0.007085      0.006084
Pd      8.91080      7.03006      9.15647        -0.001628      0.004065      0.000925
Pd      8.55624      6.58171     14.23617         0.001665      0.004157      0.008587
Pd      7.68588      9.33005     11.94142        -0.001522      0.006517      0.001395
Pd     11.99747     10.40518      7.76811        -0.003547     -0.001273     -0.006712
Pd      7.14338     12.02566      9.02785        -0.001649     -0.000384      0.002072
Pd      8.08381      9.58565      9.28562         0.005843      0.002775      0.001309
Pd     14.02851      6.46665      8.49994         0.001233      0.002494      0.002765
Pd     12.50976      8.32232     11.60058         0.015663      0.008363     -0.006059
Pd      8.76205     11.59506     13.38745         0.000247     -0.012039      0.002962
Pd     13.91257     11.95259      8.97114        -0.002439     -0.001585     -0.001553
Pd     12.93891     10.65524     13.04843         0.003310      0.001808      0.001374
Pd     14.79368     10.43158     11.09661        -0.000995      0.001706     -0.000770
Pd     12.09083     10.86650     10.52074        -0.002726      0.001830      0.000951
Pd     11.45310     13.30863      9.88731        -0.004066      0.004598      0.012014
Pd     13.60384     12.90266     11.62965        -0.004173      0.000229      0.001484
Pd     11.11938     12.59659     12.49999        -0.003186     -0.004736      0.005114
Pd     10.94687     11.06803     14.80051         0.009798      0.007099      0.004184
Pd     10.48148      9.77553     12.36694         0.008379     -0.009327      0.004877
Pd      9.07227      9.15012     14.40367         0.021190      0.000635      0.020967
Pd      8.83479     13.84522     11.97574        -0.006686     -0.009491      0.008582
