152
# total energy = -1004.21572288 eVH     10.35389      5.87395      7.64558        -0.234377      0.249420      0.597205
H     10.62451     15.10445      7.64558        -0.248054     -0.140417      0.691396
H     10.62451      5.87395     13.33282         0.471841      0.039954     -0.960760
H     10.35389     15.10445     13.33282         0.071012     -0.196343     -0.531421
H      7.64558     10.35389      5.87395         0.434237      0.066077      0.110791
H      7.64558     10.62451     15.10445         0.800581      0.605471     -0.031422
H     13.33282     10.62451      5.87395        -0.440480     -0.078878      0.308907
H     13.33282     10.35389     15.10445        -0.684522     -0.160424     -0.036455
H      5.87395      7.64558     10.35389         0.090370      1.786109      0.144243
H     15.10445      7.64558     10.62451        -0.098694      0.509873      0.117348
H      5.87395     13.33282     10.62451         0.207719     -0.754351      0.059495
H     15.10445     13.33282     10.35389         0.232029     -1.446749     -0.342670
H      5.87395     10.35389      7.64558         0.081439      0.076513      0.602062
H     15.10445     10.62451      7.64558        -0.214877      0.784731      1.320730
H      5.87395     10.62451     13.33282        -0.051351      0.457127     -1.311157
H     15.10445     10.35389     13.33282         0.135039     -0.132984     -0.761214
H     10.35389      7.64558      5.87395         0.232769      1.402486      0.186137
H     10.62451      7.64558     15.10445         0.560689      0.842064     -0.078045
H     10.62451     13.33282      5.87395        -0.565156     -0.808250      0.182264
H     10.35389     13.33282     15.10445        -0.120067     -0.518856     -0.286513
H      7.64558      5.87395     10.35389         1.113100     -0.303015     -0.161001
H      7.64558     15.10445     10.62451         0.705151     -0.208446     -0.026061
H     13.33282      5.87395     10.62451        -0.619581      0.115694      0.602895
H     13.33282     15.10445     10.35389        -0.368468     -0.040948     -0.124041
H     12.45634     12.45634     19.01126         0.272362      0.243788     -0.234120
H     19.01126     19.01126     19.01126        -0.267110     -0.275269     -0.212095
H     19.01126     12.45634     12.45634        -0.271873      0.254391      0.233048
H     12.45634     19.01126     12.45634         0.256667     -0.282225      0.227530
C     10.35284      5.61067      6.59456        -0.130337     -0.840017     -0.618043
C     10.62556     15.36773      6.59456         0.090246      0.360709     -0.267592
C     10.62556      5.61067     14.38384        -0.084307     -0.616257      0.636599
C     10.35284     15.36773     14.38384        -0.017318      0.236617      0.541380
C      6.59456     10.35284      5.61067        -0.707149      0.091987     -0.503844
C      6.59456     10.62556     15.36773        -1.003567      0.209222      0.736768
C     14.38384     10.62556      5.61067         0.908250      0.020440     -0.965444
C     14.38384     10.35284     15.36773         0.964076     -0.083197      0.496669
C      5.61067      6.59456     10.35284        -0.833394     -0.950186     -0.491814
C     15.36773      6.59456     10.62556         0.725117     -0.004878     -0.213125
C      5.61067     14.38384     10.62556        -0.202512      0.901153     -0.023792
C     15.36773     14.38384     10.35284         0.305579      1.473261     -0.062690
C      5.61067     10.35284      6.59456        -0.300286     -0.003562     -0.755204
C     15.36773     10.62556      6.59456         0.392602     -0.383161     -0.870211
C      5.61067     10.62556     14.38384        -0.361478     -0.014761      1.062853
C     15.36773     10.35284     14.38384         0.303685     -0.034860      0.895255
C     10.35284      6.59456      5.61067        -0.000878     -1.040377     -0.313999
C     10.62556      6.59456     15.36773         0.030453     -0.729810      0.576699
C     10.62556     14.38384      5.61067         0.107044      0.944783     -0.429064
C     10.35284     14.38384     15.36773        -0.026776      0.741193      0.369883
C      6.59456      5.61067     10.35284        -0.718901     -1.186403      0.153653
C      6.59456     15.36773     10.62556        -0.771743      0.128774      0.084644
C     14.38384      5.61067     10.62556        -0.050747     -0.487421     -0.409747
C     14.38384     15.36773     10.35284         0.080053      0.632587     -0.077107
C     10.40319      3.19606      7.29314         0.007488      0.619345     -0.829434
C     10.35913      4.25547      6.23373         0.005867     -0.506293      0.121841
C      0.08601      7.29314      7.29314        -0.029610     -1.055542     -0.261830
C      0.13007      6.23373      6.23373        -0.051322      0.393394      0.447779
C      0.08601      3.19606      3.19606         0.038061      1.152118      0.216495
C      0.13007      4.25547      4.25547         0.001163     -0.429791     -0.422706
C     10.40319      7.29314      3.19606        -0.013170     -0.635387      0.211274
C     10.35913      6.23373      4.25547        -0.032352      0.124389     -0.708558
C      7.29314     10.40319      3.19606        -0.439049      0.015959      0.239340
C      6.23373     10.35913      4.25547         0.202685      0.057963     -0.096828
C      7.29314      0.08601      7.29314        -1.250244     -0.079449     -0.385478
C      6.23373      0.13007      6.23373         0.668366     -0.197559      0.373324
C      3.19606      0.08601      3.19606         1.239466     -0.014336      0.273591
C      4.25547      0.13007      4.25547        -0.591912     -0.145207     -0.224417
C      3.19606     10.40319      7.29314         0.550729      0.031119     -0.258903
C      4.25547     10.35913      6.23373        -0.211657      0.066933      0.182237
C      3.19606      7.29314     10.40319         0.285768     -0.550383      0.053299
C      4.25547      6.23373     10.35913        -0.971913     -0.002474      0.161033
C      7.29314      7.29314      0.08601        -0.470977     -0.433461     -0.020673
C      6.23373      6.23373      0.13007         0.439680      0.303336      0.065562
C      3.19606      3.19606      0.08601         0.634456      0.456017     -0.022080
C      4.25547      4.25547      0.13007        -0.147700     -0.779010     -0.114228
C      7.29314      3.19606     10.40319        -0.376376      0.450601      0.055218
C      6.23373      4.25547     10.35913         0.600455     -0.692359      0.198938
O     10.43466      3.58206      8.50569         0.057468      0.220485      0.715277
O     10.54374     17.39634      8.50569         0.054109     -0.024337      0.302554
O     10.54374      3.58206     12.47271         0.004660     -0.040901     -0.239068
O     10.43466     17.39634     12.47271        -0.033267     -0.094538     -0.375596
O      8.50569     10.43466      3.58206         0.581525     -0.048841      0.149007
O      8.50569     10.54374     17.39634         0.879644     -0.081229     -0.142395
O     12.47271     10.54374      3.58206        -0.897854      0.142684      0.126807
O     12.47271     10.43466     17.39634        -0.606652      0.039626     -0.181804
O      3.58206      8.50569     10.43466         0.179764      0.648554     -0.038287
O     17.39634      8.50569     10.54374        -0.139816      0.624576      0.019986
O      3.58206     12.47271     10.54374         0.107405     -0.556580      0.048244
O     17.39634     12.47271     10.43466        -0.178469     -0.562450     -0.057831
O      3.58206     10.43466      8.50569         0.089342     -0.042766      0.385222
O     17.39634     10.54374      8.50569         0.063730      0.104288      0.323958
O      3.58206     10.54374     12.47271        -0.035232      0.025691     -0.223897
O     17.39634     10.43466     12.47271        -0.108976     -0.029074     -0.408950
O     10.43466      8.50569      3.58206        -0.046025      0.661157      0.182674
O     10.54374      8.50569     17.39634        -0.090197      0.812393     -0.150492
O     10.54374     12.47271      3.58206         0.121436     -0.931929      0.167750
O     10.43466     12.47271     17.39634         0.014663     -0.466867     -0.053039
O      8.50569      3.58206     10.43466         0.562970      0.148786     -0.051171
O      8.50569     17.39634     10.54374         0.591605     -0.163916      0.016477
O     12.47271      3.58206     10.54374        -0.737230      0.122111      0.017848
O     12.47271     17.39634     10.43466        -0.502591     -0.127955     -0.031379
O     11.90042     11.90042     19.56718        -0.322978     -0.267638      0.244550
O     19.56718     19.56718     19.56718         0.296175      0.324541      0.204476
O     19.56718     11.90042     11.90042         0.343875     -0.284907     -0.249165
O     11.90042     19.56718     11.90042        -0.281769      0.349614     -0.220540
O      9.45224      1.03696      9.45224        -0.039742      0.104332     -0.123832
O      1.03696      9.45224      9.45224         0.069223     -0.030434     -0.109365
O      1.03696      1.03696      1.03696         0.063462      0.089820      0.104954
O      9.45224      9.45224      1.03696        -0.035570     -0.026666      0.096371
Zr     10.48920      2.52580     10.48920        -0.090480     -0.240198      0.182146
Zr     10.48920     18.45260     10.48920         0.019864      0.055869      0.078342
Zr     10.48920     10.48920      2.52580        -0.314538     -0.220684     -0.408143
Zr     10.48920     10.48920     18.45260         0.191461      0.009689      0.345306
Zr      2.52580     10.48920     10.48920        -0.134747     -0.044447     -0.067325
Zr     18.45260     10.48920     10.48920         0.104749     -0.047260      0.135277
Pd     12.66755      8.22123      9.68982        -0.001880      0.013987      0.023602
Pd      6.75632      9.63461     10.49117        -0.050264      0.002353      0.025514
Pd      6.94834     11.80186     11.93856        -0.025588     -0.013409      0.021018
Pd     12.24470     13.47461      7.29190        -0.015145     -0.002997      0.001782
Pd     12.10852      7.90113      7.03914        -0.029216     -0.003703      0.060409
Pd      8.53383      7.37161      6.96080        -0.030474     -0.002806     -0.011531
Pd     11.55249     11.45954      5.66303        -0.038743     -0.022044      0.034471
Pd     14.49905      8.82650      7.80555        -0.013914      0.014223     -0.005604
Pd      9.90396     11.76132      7.84099         0.022126      0.055315      0.038204
Pd      7.07833      7.18591     11.97504         0.030491     -0.002052      0.031606
Pd      6.44679      7.75390      8.49225        -0.004136     -0.067457      0.027996
Pd      7.33790      9.26358     13.48250        -0.004203      0.013303      0.010283
Pd     11.33645      6.04080      9.22969         0.053339     -0.039291     -0.027356
Pd      9.90019      9.59160      6.27221         0.005959     -0.030344      0.013331
Pd      9.13292     13.89667      9.26147        -0.006956      0.070915     -0.016135
Pd     10.87322      7.17069     11.54154         0.040904      0.037599     -0.032181
Pd     10.33403      9.04727      8.90088        -0.017973     -0.013950      0.064948
Pd      9.26084     11.47857     10.43959         0.041017      0.055725     -0.027110
Pd      8.86177      7.11628      9.64708         0.004419      0.005976      0.023979
Pd      9.04609      7.26180     13.69136        -0.002703      0.028817     -0.032640
Pd      9.09722      9.09368     11.47659         0.035092     -0.053895     -0.040991
Pd     12.35481     10.57662      8.09174        -0.038631      0.018122     -0.003372
Pd      6.99988     12.09288      9.22552        -0.009181     -0.025545     -0.024442
Pd      8.04509      9.87060      8.20654        -0.017663     -0.012116     -0.021244
Pd     13.97879      6.28569      8.46465         0.007656      0.024026      0.007159
Pd     13.28838      8.22846     12.21234         0.038667      0.048571      0.032295
Pd      9.18718     11.30397     13.22859         0.026410      0.015091     -0.029083
Pd     14.09484     12.42109      8.80301         0.004641     -0.013717      0.034434
Pd     13.16561     10.81413     12.92563         0.016272      0.044336      0.017870
Pd     14.24614     10.23989     10.38195         0.024716      0.051374     -0.006478
Pd     11.59793     10.35684     10.86358         0.016891      0.066272     -0.014363
Pd     11.54692     12.92025      9.76195         0.001476     -0.039486     -0.002977
Pd     13.69873     12.86110     11.47771         0.005937     -0.001302      0.011022
Pd     11.25674     12.63461     12.34769        -0.005097      0.032767      0.012405
Pd     11.37377     11.46278     14.80082        -0.047797      0.039255      0.009677
Pd     11.06694      9.22442     13.29842        -0.023539     -0.011513     -0.016588
Pd      9.46972      9.60331     15.34369         0.006786     -0.031999     -0.049563
Pd      8.92573     13.73313     11.93746        -0.066699     -0.003307      0.050111
