152
# total energy = -1024.14522659 eVH     10.35389      5.87395      7.64558         0.549575      0.060997      0.785886
H     10.62451     15.10445      7.64558         0.018076     -0.169119      0.548577
H     10.62451      5.87395     13.33282         0.144735      0.158906     -0.650646
H     10.35389     15.10445     13.33282        -0.350933     -0.069640     -0.720433
H      7.64558     10.35389      5.87395         0.324696     -0.010595      0.189030
H      7.64558     10.62451     15.10445         0.955597     -0.364958     -0.001274
H     13.33282     10.62451      5.87395        -0.742855     -0.001258      0.182430
H     13.33282     10.35389     15.10445        -0.861279     -0.363165      0.177710
H      5.87395      7.64558     10.35389         0.212820      0.656179     -0.027209
H     15.10445      7.64558     10.62451        -0.146388      0.406024     -0.044523
H      5.87395     13.33282     10.62451         0.171661     -0.491741     -0.087781
H     15.10445     13.33282     10.35389        -0.112133     -1.104568      0.014514
H      5.87395     10.35389      7.64558         0.144714      0.112654      0.458828
H     15.10445     10.62451      7.64558         0.061509      0.121965      1.076175
H      5.87395     10.62451     13.33282         0.106010     -0.027452     -0.391002
H     15.10445     10.35389     13.33282        -0.082401     -0.153224     -0.632942
H     10.35389      7.64558      5.87395         0.085123      0.867218      0.206533
H     10.62451      7.64558     15.10445         0.016759      0.288518     -0.178959
H     10.62451     13.33282      5.87395        -0.053149     -0.548062      0.270402
H     10.35389     13.33282     15.10445        -0.493230     -0.693143     -0.050599
H      7.64558      5.87395     10.35389         0.467436      0.115948      0.055771
H      7.64558     15.10445     10.62451         0.839618     -0.277854      0.004136
H     13.33282      5.87395     10.62451        -0.513510      0.170630     -0.068303
H     13.33282     15.10445     10.35389        -0.632401     -0.059055      0.213840
H     12.45634     12.45634     19.01126         0.240609      0.279232     -0.230644
H     19.01126     19.01126     19.01126        -0.254642     -0.240361     -0.248596
H     19.01126     12.45634     12.45634        -0.254011      0.273223      0.223053
H     12.45634     19.01126     12.45634         0.227024     -0.262580      0.244723
C     10.35284      5.61067      6.59456        -0.163509     -0.600549      0.050955
C     10.62556     15.36773      6.59456         0.004052      0.434943     -0.751683
C     10.62556      5.61067     14.38384        -0.044268     -0.103089      0.777403
C     10.35284     15.36773     14.38384         0.136105      0.689445      0.215606
C      6.59456     10.35284      5.61067        -0.385321     -0.030939     -0.249134
C      6.59456     10.62556     15.36773        -1.061310      0.378894      0.406860
C     14.38384     10.62556      5.61067         0.402823      0.291765     -0.588194
C     14.38384     10.35284     15.36773         1.000117     -0.034062      0.400140
C      5.61067      6.59456     10.35284        -0.380554     -0.495994      0.244785
C     15.36773      6.59456     10.62556         0.182789     -0.530384      0.028101
C      5.61067     14.38384     10.62556        -0.136288      0.502146     -0.001320
C     15.36773     14.38384     10.35284         0.352210     -0.047482     -0.133972
C      5.61067     10.35284      6.59456        -0.286797     -0.049394     -0.836840
C     15.36773     10.62556      6.59456         0.696052     -0.322072     -1.149966
C      5.61067     10.62556     14.38384        -0.521689     -0.015259      0.222030
C     15.36773     10.35284     14.38384         0.663879     -0.125054      1.141060
C     10.35284      6.59456      5.61067        -0.260061     -0.451883     -0.782221
C     10.62556      6.59456     15.36773         0.050993     -0.290681      0.119703
C     10.62556     14.38384      5.61067         0.155860      1.136190     -0.409508
C     10.35284     14.38384     15.36773         0.205993      0.175402      0.658415
C      6.59456      5.61067     10.35284        -0.362766     -0.748499      0.059635
C      6.59456     15.36773     10.62556        -1.251948      0.303178      0.071535
C     14.38384      5.61067     10.62556         0.762340     -0.255304      0.020043
C     14.38384     15.36773     10.35284        -0.523510      0.731965     -0.336450
C     10.40319      3.19606      7.29314        -0.009979      0.868498     -0.396181
C     10.35913      4.25547      6.23373         0.031204     -0.500262      0.572434
C      0.08601      7.29314      7.29314        -0.008554     -0.486749     -0.396883
C      0.13007      6.23373      6.23373        -0.018302      0.024757      0.097685
C      0.08601      3.19606      3.19606        -0.018239      1.027066      0.188229
C      0.13007      4.25547      4.25547        -0.065073     -0.211216     -0.247822
C     10.40319      7.29314      3.19606        -0.005011     -0.914656      0.470679
C     10.35913      6.23373      4.25547         0.024175      0.463715     -0.624216
C      7.29314     10.40319      3.19606        -0.444124      0.043462      0.832636
C      6.23373     10.35913      4.25547         0.245679      0.091897     -0.117208
C      7.29314      0.08601      7.29314        -0.466212     -0.026112     -0.255447
C      6.23373      0.13007      6.23373         0.412238     -0.062150      0.455847
C      3.19606      0.08601      3.19606         0.739800     -0.018920      0.372918
C      4.25547      0.13007      4.25547        -0.107448     -0.054609     -0.429306
C      3.19606     10.40319      7.29314         0.635402     -0.002566     -0.701948
C      4.25547     10.35913      6.23373        -0.249319      0.108704      0.230531
C      3.19606      7.29314     10.40319         0.505993     -1.317875     -0.034144
C      4.25547      6.23373     10.35913        -0.395364      0.840426      0.041643
C      7.29314      7.29314      0.08601        -0.509682     -0.234041     -0.013192
C      6.23373      6.23373      0.13007         0.171533      0.147124     -0.010802
C      3.19606      3.19606      0.08601         0.245673      0.285193     -0.022248
C      4.25547      4.25547      0.13007        -0.076478     -0.041815      0.016330
C      7.29314      3.19606     10.40319        -0.362285      0.727252      0.016456
C      6.23373      4.25547     10.35913         1.115054      0.067708      0.006314
O     10.43466      3.58206      8.50569        -0.032358      0.040813      0.441796
O     10.54374     17.39634      8.50569        -0.019512     -0.095349      0.465837
O     10.54374      3.58206     12.47271         0.052796     -0.042655     -0.189424
O     10.43466     17.39634     12.47271        -0.044541     -0.075216     -0.541468
O      8.50569     10.43466      3.58206         0.386302     -0.017115     -0.022776
O      8.50569     10.54374     17.39634         0.572371      0.028257     -0.160267
O     12.47271     10.54374      3.58206        -0.661977     -0.024456      0.161204
O     12.47271     10.43466     17.39634        -0.584813     -0.028348     -0.073937
O      3.58206      8.50569     10.43466         0.178374      1.123860     -0.002057
O     17.39634      8.50569     10.54374        -0.054850      0.382687      0.070802
O      3.58206     12.47271     10.54374         0.076223     -0.459981      0.033938
O     17.39634     12.47271     10.43466        -0.157345     -0.726257      0.014425
O      3.58206     10.43466      8.50569         0.005448     -0.071460      0.576127
O     17.39634     10.54374      8.50569        -0.103409      0.041101      0.376688
O      3.58206     10.54374     12.47271         0.033265      0.014371     -0.375635
O     17.39634     10.43466     12.47271        -0.211542      0.023039     -0.723132
O     10.43466      8.50569      3.58206         0.082473      0.813906      0.190874
O     10.54374      8.50569     17.39634         0.063943      0.651527     -0.143793
O     10.54374     12.47271      3.58206        -0.047717     -0.956782      0.246595
O     10.43466     12.47271     17.39634        -0.000724     -0.938772     -0.214139
O      8.50569      3.58206     10.43466         0.513412      0.087999     -0.022960
O      8.50569     17.39634     10.54374         0.603755     -0.236508     -0.032360
O     12.47271      3.58206     10.54374        -0.459713      0.142469      0.054222
O     12.47271     17.39634     10.43466        -0.405917      0.039297     -0.014311
O     11.90042     11.90042     19.56718        -0.269072     -0.332937      0.253862
O     19.56718     19.56718     19.56718         0.287611      0.275271      0.294050
O     19.56718     11.90042     11.90042         0.279347     -0.314482     -0.204878
O     11.90042     19.56718     11.90042        -0.271332      0.288063     -0.262936
O      9.45224      1.03696      9.45224        -0.080650      0.050777     -0.057888
O      1.03696      9.45224      9.45224         0.052571     -0.160584     -0.102091
O      1.03696      1.03696      1.03696         0.013479      0.080622      0.194877
O      9.45224      9.45224      1.03696        -0.056820     -0.082338      0.134230
Zr     10.48920      2.52580     10.48920        -0.021734     -0.088014     -0.148787
Zr     10.48920     18.45260     10.48920         0.066949      0.255195      0.015642
Zr     10.48920     10.48920      2.52580         0.012366     -0.159336     -0.532049
Zr     10.48920     10.48920     18.45260        -0.160894      0.041267      0.474538
Zr      2.52580     10.48920     10.48920        -0.374168      0.292491      0.116059
Zr     18.45260     10.48920     10.48920         0.208847      0.042807     -0.287786
Pd      8.59872      9.88652     13.31469         0.104404     -0.020452     -0.047224
Pd     10.54190      9.51807     10.33413         0.026638      0.017635     -0.124640
Pd     13.44326      8.74158     12.51916         0.051902     -0.045453     -0.009890
Pd     10.69713     10.64846     15.11630        -0.133095     -0.025886      0.017713
Pd     13.01508     11.31305     13.42362        -0.022513      0.020407      0.098080
Pd     14.99247     10.78461     11.28216        -0.076550     -0.038444     -0.018980
Pd      6.73434      7.92449     12.55437         0.002835      0.029726     -0.043830
Pd      9.26948      7.20043      9.64126         0.017284      0.027002      0.029107
Pd      9.38074      7.47280     12.41339         0.076271      0.046254     -0.076942
Pd     11.68997      7.24196     11.12656         0.075543     -0.030870      0.017339
Pd     11.68895      7.82308      8.49084        -0.075383      0.018586     -0.033574
Pd      7.25315     11.71149     11.62487        -0.052257      0.052570      0.022575
Pd      9.29579     14.49647      9.48315        -0.049425      0.024140      0.008633
Pd      8.13887     12.38026     14.21754         0.091873      0.070678     -0.018777
Pd     14.16205     14.21131      8.34008         0.034626     -0.007716     -0.027168
Pd     11.67232     13.42360      8.88923        -0.018926      0.035418      0.023321
Pd     14.05065     11.63269      8.92473         0.081211      0.044546      0.031505
Pd      8.75236     13.91631     12.17229         0.092888     -0.061597     -0.027179
Pd     12.20214     13.80921     14.05400         0.002458      0.029621     -0.035359
Pd     11.41834     14.09428     11.45990        -0.028635     -0.012575     -0.028628
Pd     14.06487     13.47105     12.15752        -0.018627     -0.045241      0.015108
Pd     12.35249     11.64493     10.92155         0.025080      0.044204     -0.052680
Pd     12.80245     12.63438      6.63849        -0.022888     -0.041960     -0.024827
Pd     13.93750      8.90600      7.68151         0.035435      0.038838     -0.076636
Pd      6.99507      8.42775      8.55996        -0.042187     -0.050232     -0.050011
Pd      5.62420     10.04595     10.25753        -0.139083     -0.032307      0.008433
Pd      9.39632      9.36206      7.67216        -0.007253      0.126544     -0.011080
Pd      8.49151      6.88126      7.05010        -0.040340      0.038969     -0.068971
Pd      9.72375     11.97232     10.56676        -0.026890     -0.020220     -0.103374
Pd     11.63455     10.73311      8.19812         0.012703     -0.077560      0.004648
Pd     11.69074      9.04644      6.09101         0.004869     -0.026059     -0.081576
Pd     10.24143     11.31548      5.91748         0.044828      0.036636     -0.028044
Ir     11.06159      9.54131     12.78153        -0.033379      0.009781      0.124311
Ir     13.18899      9.34654     10.05440        -0.051128     -0.000776     -0.027699
Ir     10.50349     12.02025     12.94475        -0.020201      0.117823     -0.000848
Ir      7.78046     10.94705      9.11768        -0.000534      0.101646     -0.116441
Ir      9.38144     12.32948      8.05637        -0.023735     -0.199360      0.019728
Ir      8.10254      9.23690     10.86098        -0.063171     -0.142380      0.162801
