152
# total energy = -1110.39167947 eVH     10.35389      5.87395      7.64558        -0.384867     -0.131220      1.142042
H     10.62451     15.10445      7.64558         0.329668      0.077690      0.920876
H     10.62451      5.87395     13.33282        -0.319454     -0.678066     -1.342619
H     10.35389     15.10445     13.33282        -0.587570      0.426586     -0.332559
H      7.64558     10.35389      5.87395         0.556957     -0.522519     -0.100456
H      7.64558     10.62451     15.10445         0.385210     -0.235064      0.043624
H     13.33282     10.62451      5.87395        -0.577430      0.646053     -0.047590
H     13.33282     10.35389     15.10445        -0.525456      0.388881      0.154415
H      5.87395      7.64558     10.35389         0.149169      0.554747      0.027986
H     15.10445      7.64558     10.62451         0.429186      1.018176      0.282612
H      5.87395     13.33282     10.62451        -0.221089     -0.502161      0.361776
H     15.10445     13.33282     10.35389         0.027722     -0.299978     -0.379948
H      5.87395     10.35389      7.64558        -0.101701     -0.408336      1.483798
H     15.10445     10.62451      7.64558         0.219340      0.511380      1.325241
H      5.87395     10.62451     13.33282        -0.216846     -0.369979     -1.204397
H     15.10445     10.35389     13.33282         0.609990      0.996092     -1.533013
H     10.35389      7.64558      5.87395        -0.582206      0.528020     -0.174147
H     10.62451      7.64558     15.10445        -0.134656      0.453812      0.159414
H     10.62451     13.33282      5.87395         0.869810     -1.331605     -0.313433
H     10.35389     13.33282     15.10445         0.227767     -0.561957     -0.105020
H      7.64558      5.87395     10.35389         0.719511      0.164424     -0.172251
H      7.64558     15.10445     10.62451         1.979764      0.751868      0.220727
H     13.33282      5.87395     10.62451        -2.658692     -0.909769     -0.508571
H     13.33282     15.10445     10.35389        -0.878190     -0.056187     -0.252834
H     12.45634     12.45634     19.01126         0.272008      0.257777     -0.227487
H     19.01126     19.01126     19.01126        -0.266776     -0.254909     -0.238815
H     19.01126     12.45634     12.45634        -0.283962      0.281560      0.184870
H     12.45634     19.01126     12.45634         0.256462     -0.250795      0.235662
C     10.35284      5.61067      6.59456         0.076362     -0.486779     -1.206095
C     10.62556     15.36773      6.59456         0.190813      0.754186     -0.812217
C     10.62556      5.61067     14.38384         0.181592     -0.296804      1.786677
C     10.35284     15.36773     14.38384         0.086281      0.383876      1.792467
C      6.59456     10.35284      5.61067        -1.137855     -0.110646     -0.893778
C      6.59456     10.62556     15.36773        -0.701773     -0.095515      0.792745
C     14.38384     10.62556      5.61067         0.839929     -0.111416     -0.992046
C     14.38384     10.35284     15.36773         1.180125      0.168288      1.099034
C      5.61067      6.59456     10.35284        -0.668432     -0.898873     -0.187923
C     15.36773      6.59456     10.62556         2.005017     -0.316984     -0.187858
C      5.61067     14.38384     10.62556        -1.567861     -0.012973     -0.141592
C     15.36773     14.38384     10.35284         0.485053      0.088693      0.000924
C      5.61067     10.35284      6.59456        -0.274788      0.210913     -1.352161
C     15.36773     10.62556      6.59456         0.294941     -0.263369     -0.982648
C      5.61067     10.62556     14.38384        -0.255427      0.445585      1.457864
C     15.36773     10.35284     14.38384         0.008441     -0.484022      1.943582
C     10.35284      6.59456      5.61067        -0.161254     -0.850821     -0.697323
C     10.62556      6.59456     15.36773        -0.117938     -0.719081      1.045844
C     10.62556     14.38384      5.61067        -0.501924      1.988877     -0.755360
C     10.35284     14.38384     15.36773        -0.261019      1.363160      0.501226
C      6.59456      5.61067     10.35284        -0.986668     -0.410219      0.093532
C      6.59456     15.36773     10.62556        -1.259478      0.370362     -0.332798
C     14.38384      5.61067     10.62556         1.272176     -1.299508      0.214352
C     14.38384     15.36773     10.35284         0.457879      0.311146      0.085114
C     10.40319      3.19606      7.29314         0.001221      0.304952     -0.110764
C     10.35913      4.25547      6.23373         0.142093     -0.573000      0.015792
C      0.08601      7.29314      7.29314        -0.053313     -0.281211     -0.420518
C      0.13007      6.23373      6.23373        -0.123094      0.672098      0.018177
C      0.08601      3.19606      3.19606        -0.105688      1.660414      0.166031
C      0.13007      4.25547      4.25547        -0.096020     -0.393250     -1.208843
C     10.40319      7.29314      3.19606         0.015843     -0.448332      0.121695
C     10.35913      6.23373      4.25547         0.263927      0.085960     -0.533536
C      7.29314     10.40319      3.19606        -1.695284      0.010638      0.324474
C      6.23373     10.35913      4.25547         0.669059      0.080740     -0.622268
C      7.29314      0.08601      7.29314        -0.410336     -0.015203     -0.316844
C      6.23373      0.13007      6.23373         0.723894     -0.058242      0.247133
C      3.19606      0.08601      3.19606         0.661022     -0.018333      0.180232
C      4.25547      0.13007      4.25547        -0.358515     -0.085252     -0.568499
C      3.19606     10.40319      7.29314         0.351643      0.023022     -0.319329
C      4.25547     10.35913      6.23373        -0.739727      0.077366      0.362971
C      3.19606      7.29314     10.40319         0.285924     -0.203169     -0.006656
C      4.25547      6.23373     10.35913         0.042515      0.634292      0.091507
C      7.29314      7.29314      0.08601        -0.716650     -0.610663     -0.027063
C      6.23373      6.23373      0.13007         0.902240      1.124157     -0.066418
C      3.19606      3.19606      0.08601         0.823576      0.513797      0.001755
C      4.25547      4.25547      0.13007        -0.327575     -1.765554     -0.129955
C      7.29314      3.19606     10.40319        -0.325301      0.271128     -0.004601
C      6.23373      4.25547     10.35913         0.507892     -0.021573      0.230642
O     10.43466      3.58206      8.50569        -0.048609      0.186579      0.259449
O     10.54374     17.39634      8.50569         0.042310     -0.236415      0.486341
O     10.54374      3.58206     12.47271         0.083875     -0.074767     -0.023731
O     10.43466     17.39634     12.47271        -0.023096     -0.141832     -0.269407
O      8.50569     10.43466      3.58206         0.992759      0.189468      0.377494
O      8.50569     10.54374     17.39634         0.579384      0.084332     -0.229784
O     12.47271     10.54374      3.58206        -0.414273     -0.040951      0.182031
O     12.47271     10.43466     17.39634        -0.507256     -0.067861     -0.193324
O      3.58206      8.50569     10.43466         0.184442      0.423708     -0.028957
O     17.39634      8.50569     10.54374        -0.230481      0.713071      0.045989
O      3.58206     12.47271     10.54374         0.162199     -0.682081      0.026109
O     17.39634     12.47271     10.43466        -0.186550     -0.475298     -0.010586
O      3.58206     10.43466      8.50569         0.230718     -0.061744      0.405648
O     17.39634     10.54374      8.50569        -0.171755      0.037247      0.412414
O      3.58206     10.54374     12.47271         0.148361      0.021307     -0.304098
O     17.39634     10.43466     12.47271         0.080875     -0.051704     -0.071240
O     10.43466      8.50569      3.58206         0.004614      0.273283      0.183397
O     10.54374      8.50569     17.39634         0.069698      0.426927     -0.174787
O     10.54374     12.47271      3.58206        -0.222068     -0.974611      0.330781
O     10.43466     12.47271     17.39634        -0.082291     -0.450880     -0.245488
O      8.50569      3.58206     10.43466         0.489442      0.197302     -0.010145
O      8.50569     17.39634     10.54374         0.665408     -0.203410      0.022121
O     12.47271      3.58206     10.54374        -0.747038      0.280282      0.037933
O     12.47271     17.39634     10.43466        -0.432713     -0.205920     -0.043783
O     11.90042     11.90042     19.56718        -0.347161     -0.307400      0.260750
O     19.56718     19.56718     19.56718         0.324274      0.311592      0.283934
O     19.56718     11.90042     11.90042         0.274692     -0.273917     -0.138436
O     11.90042     19.56718     11.90042        -0.305307      0.283145     -0.233292
O      9.45224      1.03696      9.45224        -0.061169      0.073074     -0.045346
O      1.03696      9.45224      9.45224         0.035826     -0.075679     -0.070286
O      1.03696      1.03696      1.03696         0.063374      0.149503      0.095722
O      9.45224      9.45224      1.03696        -0.142905     -0.098298      0.096062
Zr     10.48920      2.52580     10.48920         0.163788     -0.173258     -0.167914
Zr     10.48920     18.45260     10.48920        -0.101405      0.187095     -0.050797
Zr     10.48920     10.48920      2.52580         0.343674     -0.310492     -0.204696
Zr     10.48920     10.48920     18.45260         0.014553     -0.088613      0.200185
Zr      2.52580     10.48920     10.48920        -0.071650      0.179409     -0.052531
Zr     18.45260     10.48920     10.48920         0.146660     -0.132793     -0.252870
Ir     12.03811     12.48404     10.45487         0.013737     -0.011794     -0.010475
Ir     11.21787      7.41367     10.24534         0.010057     -0.005191     -0.017401
Ir      8.85674      7.34965     11.52436         0.004208     -0.009166     -0.010103
Ir      7.46233     11.64790      7.65740        -0.011405     -0.004290      0.000841
Ir     11.59552     12.07265      7.11250         0.005363     -0.001682     -0.002013
Ir     13.78461      8.99329      7.52283         0.004577     -0.002467     -0.007402
Ir     12.47143     13.95268      8.40710        -0.004152     -0.006898     -0.003055
Ir      9.73949     11.25450      5.53986         0.003412     -0.000667     -0.007422
Ir      9.07421     13.44273      7.07711         0.001292     -0.003059     -0.005642
Ir      9.26654      9.67256      7.49952        -0.006483      0.005459     -0.004986
Ir     13.28625      7.03620     11.95912         0.003524     -0.011043     -0.001319
Ir     13.63769      7.04182      9.10762         0.010874      0.004765     -0.008832
Ir     11.04545      7.59083     12.80032        -0.004859     -0.001861     -0.012227
Ir     13.59829     11.56461      8.75076        -0.010065      0.001800      0.003348
Ir     11.50238      9.62232      6.21901         0.000125     -0.009080     -0.007286
Ir      7.16138      9.14625      8.91974        -0.001020     -0.005389     -0.008255
Ir     14.06036     11.43965     11.64670        -0.003607      0.005353     -0.004438
Ir     11.66134      9.82660      8.86023        -0.003041     -0.005069     -0.006338
Ir      9.44372      9.49920     10.22518         0.011428      0.008203     -0.008207
Ir     13.87968      9.41293     10.16712         0.005333      0.001392     -0.008590
Ir     13.83712      9.16301     12.87949         0.011644      0.004708     -0.002810
Ir     11.70287      9.75830     11.53843         0.000537      0.002053     -0.009198
Ir      9.91685     11.72893      8.96198         0.002649     -0.024463      0.001329
Ir      9.10984      7.43376      8.76984         0.009839     -0.003874     -0.019325
Ir     11.63648      7.52334      7.72182         0.025875     -0.014987     -0.011956
Ir      9.25616      9.46652     13.00283         0.002108     -0.003969     -0.003342
Ir      7.50568     13.89910      8.99413        -0.004425     -0.002061      0.003326
Ir     10.86325     14.09868     11.95155        -0.010457      0.003400      0.010078
Ir     10.11051     14.14472      9.51506         0.000001      0.005038     -0.001129
Ir      9.79050     11.67791     11.72279        -0.000456     -0.007510      0.000885
Ir      7.59036     11.56066     10.20610         0.004040     -0.000846     -0.002611
Ir      8.34360     13.73305     11.58179        -0.000981     -0.006766     -0.001960
Ir      7.52541     11.54091     12.82122         0.000746     -0.009308     -0.004593
Ir      9.77846     11.59008     14.34200         0.005078     -0.011793     -0.003022
Ir     13.46467     13.88432     12.18579        -0.004965     -0.005416     -0.000906
Ir     11.98937     12.04272     13.07681         0.004619     -0.005135     -0.005993
Ir     11.58618      9.77947     14.17751         0.002495     -0.009987     -0.008506
Ir      7.15821      9.34531     11.47840        -0.000054     -0.005178     -0.001909
