152
# total energy = -1005.99356103 eVH     10.35389      5.87395      7.64558         0.258072      0.036954      0.636077
H     10.62451     15.10445      7.64558        -0.107797     -0.142690      0.520030
H     10.62451      5.87395     13.33282         0.485620      0.121078     -0.584103
H     10.35389     15.10445     13.33282         0.073818     -0.184234     -0.549805
H      7.64558     10.35389      5.87395         0.371171      0.064182      0.169246
H      7.64558     10.62451     15.10445         0.693474      0.471900     -0.041144
H     13.33282     10.62451      5.87395        -0.531105      0.419009      0.076386
H     13.33282     10.35389     15.10445        -0.802995     -0.095466      0.007906
H      5.87395      7.64558     10.35389         0.245119      0.729314     -0.356759
H     15.10445      7.64558     10.62451        -0.094933      0.483059      0.284893
H      5.87395     13.33282     10.62451         0.158512     -0.697696     -0.158438
H     15.10445     13.33282     10.35389        -0.007769     -1.034158     -0.327753
H      5.87395     10.35389      7.64558         0.256182      0.229739      0.680261
H     15.10445     10.62451      7.64558        -0.109803      0.406244      0.763996
H      5.87395     10.62451     13.33282         0.137919      0.330556     -0.694095
H     15.10445     10.35389     13.33282        -0.048531     -0.074721     -0.694661
H     10.35389      7.64558      5.87395         0.382310      1.047985     -0.007665
H     10.62451      7.64558     15.10445         0.535830      0.536172     -0.119682
H     10.62451     13.33282      5.87395        -0.397480     -0.840453      0.188308
H     10.35389     13.33282     15.10445        -0.044029     -0.433535     -0.217151
H      7.64558      5.87395     10.35389         0.849512      0.092790     -0.291327
H      7.64558     15.10445     10.62451         0.833792     -0.198747      0.006351
H     13.33282      5.87395     10.62451        -0.800556      0.193286      0.588269
H     13.33282     15.10445     10.35389        -0.444173     -0.109407     -0.133760
H     12.45634     12.45634     19.01126         0.235474      0.270512     -0.239706
H     19.01126     19.01126     19.01126        -0.262377     -0.240682     -0.261259
H     19.01126     12.45634     12.45634        -0.266732      0.268623      0.219070
H     12.45634     19.01126     12.45634         0.232215     -0.256117      0.277867
C     10.35284      5.61067      6.59456        -0.433043     -0.712023      0.176509
C     10.62556     15.36773      6.59456         0.063885      0.366103     -0.301540
C     10.62556      5.61067     14.38384        -0.332132     -0.367128     -0.301466
C     10.35284     15.36773     14.38384        -0.007932      0.337705      0.538526
C      6.59456     10.35284      5.61067        -0.247961     -0.004322     -0.365824
C      6.59456     10.62556     15.36773        -0.259112     -0.218438      0.805850
C     14.38384     10.62556      5.61067        -0.261999     -0.399421     -0.519026
C     14.38384     10.35284     15.36773         0.975859     -0.058912      0.253700
C      5.61067      6.59456     10.35284        -0.538868     -0.004683      0.125747
C     15.36773      6.59456     10.62556         0.528700      0.020883     -0.250522
C      5.61067     14.38384     10.62556        -0.333640      0.975230      0.077949
C     15.36773     14.38384     10.35284         0.312768      1.040378      0.050915
C      5.61067     10.35284      6.59456        -0.183335     -0.273768     -0.612125
C     15.36773     10.62556      6.59456         0.445787     -0.283754      0.116110
C      5.61067     10.62556     14.38384        -0.716393     -0.349625     -0.069722
C     15.36773     10.35284     14.38384         0.384822     -0.063323      1.019285
C     10.35284      6.59456      5.61067        -0.211902     -0.236404     -0.653924
C     10.62556      6.59456     15.36773        -0.267436      0.127793      0.449269
C     10.62556     14.38384      5.61067         0.201526      1.062004     -0.347470
C     10.35284     14.38384     15.36773         0.021741      0.541700      0.439638
C      6.59456      5.61067     10.35284        -0.163392     -0.678701      0.242407
C      6.59456     15.36773     10.62556        -1.015654      0.295409      0.079480
C     14.38384      5.61067     10.62556         0.494618     -0.549445     -0.365539
C     14.38384     15.36773     10.35284         0.215008      0.457967     -0.101772
C     10.40319      3.19606      7.29314         0.010426      0.687189     -0.481883
C     10.35913      4.25547      6.23373         0.085810     -0.723670     -0.019565
C      0.08601      7.29314      7.29314        -0.044022     -0.409046     -0.311393
C      0.13007      6.23373      6.23373        -0.023015      0.084453      0.570133
C      0.08601      3.19606      3.19606        -0.015368      1.257521      0.282010
C      0.13007      4.25547      4.25547         0.049591     -0.776636     -0.153809
C     10.40319      7.29314      3.19606         0.010732     -0.334788      0.342691
C     10.35913      6.23373      4.25547         0.026812      0.008422     -0.869445
C      7.29314     10.40319      3.19606        -0.339274      0.021562      0.566142
C      6.23373     10.35913      4.25547         0.206265      0.060400     -0.104133
C      7.29314      0.08601      7.29314        -0.521740     -0.064678     -0.374229
C      6.23373      0.13007      6.23373         0.680948     -0.050434      0.485257
C      3.19606      0.08601      3.19606         0.696257     -0.035963      0.568348
C      4.25547      0.13007      4.25547        -0.577158     -0.082927     -0.550764
C      3.19606     10.40319      7.29314         0.481269     -0.016483     -0.772159
C      4.25547     10.35913      6.23373        -0.451552      0.041217      0.200278
C      3.19606      7.29314     10.40319         0.289286     -1.268211      0.041943
C      4.25547      6.23373     10.35913        -0.732165      0.104845      0.153683
C      7.29314      7.29314      0.08601        -0.407692     -0.372183     -0.027664
C      6.23373      6.23373      0.13007         0.468375      0.213795     -0.019348
C      3.19606      3.19606      0.08601         0.494767      0.373515     -0.039894
C      4.25547      4.25547      0.13007        -0.153721     -0.648876     -0.034515
C      7.29314      3.19606     10.40319        -0.323330      0.429148      0.076105
C      6.23373      4.25547     10.35913         0.268855     -0.689167      0.140776
O     10.43466      3.58206      8.50569        -0.016469      0.103255      0.503842
O     10.54374     17.39634      8.50569         0.036534     -0.174975      0.484488
O     10.54374      3.58206     12.47271         0.056016     -0.085289     -0.186584
O     10.43466     17.39634     12.47271        -0.038527     -0.182991     -0.556296
O      8.50569     10.43466      3.58206         0.320710     -0.000300      0.030635
O      8.50569     10.54374     17.39634         0.630707      0.033930     -0.144644
O     12.47271     10.54374      3.58206        -0.692238      0.083685      0.093429
O     12.47271     10.43466     17.39634        -0.438805      0.025869     -0.111138
O      3.58206      8.50569     10.43466         0.179536      1.037944     -0.044114
O     17.39634      8.50569     10.54374        -0.161172      0.539172      0.076475
O      3.58206     12.47271     10.54374         0.084878     -0.365633      0.049042
O     17.39634     12.47271     10.43466        -0.157147     -0.546666     -0.022763
O      3.58206     10.43466      8.50569         0.076632     -0.064080      0.590711
O     17.39634     10.54374      8.50569        -0.110543      0.066182      0.523037
O      3.58206     10.54374     12.47271         0.049410      0.050136     -0.527803
O     17.39634     10.43466     12.47271        -0.220951     -0.039275     -0.599024
O     10.43466      8.50569      3.58206        -0.039674      0.463900      0.135306
O     10.54374      8.50569     17.39634         0.049314      0.530202     -0.160139
O     10.54374     12.47271      3.58206        -0.000187     -1.011947      0.205731
O     10.43466     12.47271     17.39634         0.041987     -0.730592     -0.175125
O      8.50569      3.58206     10.43466         0.507412      0.146176     -0.054564
O      8.50569     17.39634     10.54374         0.487242     -0.197406      0.014291
O     12.47271      3.58206     10.54374        -0.636601      0.233106      0.009516
O     12.47271     17.39634     10.43466        -0.216029      0.069446     -0.056302
O     11.90042     11.90042     19.56718        -0.239658     -0.289509      0.247434
O     19.56718     19.56718     19.56718         0.310609      0.295191      0.300778
O     19.56718     11.90042     11.90042         0.290679     -0.264923     -0.233146
O     11.90042     19.56718     11.90042        -0.241915      0.290562     -0.333471
O      9.45224      1.03696      9.45224        -0.019928      0.087146     -0.072902
O      1.03696      9.45224      9.45224         0.091175     -0.092258     -0.137936
O      1.03696      1.03696      1.03696         0.089548      0.189712      0.049023
O      9.45224      9.45224      1.03696        -0.110227     -0.102121      0.032592
Zr     10.48920      2.52580     10.48920        -0.129688     -0.289115     -0.036513
Zr     10.48920     18.45260     10.48920        -0.074694      0.215369      0.087956
Zr     10.48920     10.48920      2.52580         0.045707     -0.405874     -0.253625
Zr     10.48920     10.48920     18.45260        -0.274679     -0.090994      0.323194
Zr      2.52580     10.48920     10.48920        -0.377701      0.241246      0.296099
Zr     18.45260     10.48920     10.48920         0.238600     -0.002237     -0.224771
Pd     13.60977      8.98463      9.21161        -0.003923      0.002230     -0.005462
Pd      5.62799      9.86819     10.13675         0.000059      0.001070     -0.007321
Pd      6.77345     11.85143     11.70999        -0.000680     -0.001511     -0.000361
Pd     12.06283     13.00080      7.36319        -0.003966     -0.002488     -0.000078
Pd     11.87781      7.74116      7.45978        -0.001963     -0.002347     -0.002195
Pd      8.31426      6.84243      6.55089         0.003259     -0.008432     -0.008077
Pd     10.59966     11.16958      5.65165        -0.015840     -0.000447      0.001358
Pd     14.39943      8.54875      6.73529        -0.001281     -0.000598     -0.002093
Pd      9.66852     11.73091      8.13661        -0.001751     -0.001645      0.007291
Pd      6.74009      6.79229     12.33329        -0.004229     -0.002320      0.002416
Pd      6.58012      8.18555      7.95755         0.014867      0.037990     -0.037951
Pd      6.52697      8.49414     14.37753         0.000052     -0.000999      0.004049
Pd     11.49001      6.51922      9.94729        -0.003967     -0.003353      0.001974
Pd      9.48156      9.20027      7.16241        -0.008275     -0.001782      0.002042
Pd      8.97942     13.99038      9.34587        -0.001188     -0.001471      0.009056
Pd      9.44834      7.36939     11.70991        -0.005586     -0.000721     -0.005013
Pd     10.62489      8.97117      9.68167         0.003536     -0.004304     -0.003697
Pd      9.34030     11.55488     10.72428        -0.000447      0.005152      0.005084
Pd      8.87866      7.06484      9.12503        -0.008733      0.001645     -0.006099
Pd      8.55352      6.57903     14.23870         0.000977      0.001116     -0.002091
Pd      7.63178      9.32590     12.01542        -0.004926     -0.002280      0.005653
Pd     11.95262     10.37850      7.72111        -0.004483     -0.002234     -0.006732
Pd      7.12939     12.01545      9.06686         0.000414     -0.001800     -0.000001
Pd      8.13926      9.61934      9.43889         0.006066      0.004299      0.015642
Pd     14.01535      6.49816      8.52214        -0.002915     -0.000147      0.000956
Pd     12.62694      8.40467     11.57330         0.000703     -0.000208     -0.003333
Pd      8.76417     11.57414     13.40984        -0.000291     -0.002586      0.000931
Pd     13.88045     11.92277      8.96762        -0.004470     -0.004073     -0.000382
Pd     12.94314     10.70294     13.07222        -0.004009     -0.001795      0.000734
Pd     14.77624     10.43984     11.11489        -0.006462     -0.005703      0.000313
Pd     12.06316     10.89826     10.53576        -0.006174     -0.000271     -0.000321
Pd     11.44396     13.34831      9.92914         0.002333      0.004135      0.000766
Pd     13.59823     12.91977     11.62743         0.000999     -0.003978      0.000134
Pd     11.11709     12.62014     12.54158        -0.001078      0.004212      0.002171
Pd     10.94746     11.06291     14.81718        -0.001286      0.002197     -0.000428
Pd     10.50696      9.72884     12.38155        -0.003241     -0.003715     -0.001378
Pd      9.08388      9.14181     14.42883         0.001419      0.000642      0.001933
Pd      8.81075     13.85876     12.04394        -0.006393      0.002750      0.011424
