152
# total energy = -1004.20825478 eVH     10.35389      5.87395      7.64558        -0.230755      0.250058      0.612527
H     10.62451     15.10445      7.64558        -0.247491     -0.141333      0.695538
H     10.62451      5.87395     13.33282         0.466593      0.039959     -0.949418
H     10.35389     15.10445     13.33282         0.068033     -0.195801     -0.533034
H      7.64558     10.35389      5.87395         0.430503      0.066348      0.111613
H      7.64558     10.62451     15.10445         0.799923      0.605374     -0.025772
H     13.33282     10.62451      5.87395        -0.439573     -0.067215      0.304258
H     13.33282     10.35389     15.10445        -0.688631     -0.161126     -0.031744
H      5.87395      7.64558     10.35389         0.094614      1.798195      0.166394
H     15.10445      7.64558     10.62451        -0.099032      0.516372      0.121611
H      5.87395     13.33282     10.62451         0.208567     -0.746919      0.054160
H     15.10445     13.33282     10.35389         0.229550     -1.450585     -0.337535
H      5.87395     10.35389      7.64558         0.082832      0.072790      0.599610
H     15.10445     10.62451      7.64558        -0.206077      0.797195      1.326194
H      5.87395     10.62451     13.33282        -0.058919      0.459139     -1.323094
H     15.10445     10.35389     13.33282         0.134585     -0.137541     -0.759444
H     10.35389      7.64558      5.87395         0.231617      1.409972      0.177432
H     10.62451      7.64558     15.10445         0.550671      0.834307     -0.080223
H     10.62451     13.33282      5.87395        -0.564699     -0.808643      0.176932
H     10.35389     13.33282     15.10445        -0.126927     -0.522177     -0.289350
H      7.64558      5.87395     10.35389         1.107695     -0.297326     -0.151401
H      7.64558     15.10445     10.62451         0.717575     -0.210408     -0.029408
H     13.33282      5.87395     10.62451        -0.618903      0.116315      0.607792
H     13.33282     15.10445     10.35389        -0.369748     -0.039446     -0.125290
H     12.45634     12.45634     19.01126         0.272762      0.243884     -0.234407
H     19.01126     19.01126     19.01126        -0.267463     -0.273677     -0.212733
H     19.01126     12.45634     12.45634        -0.272135      0.254364      0.233496
H     12.45634     19.01126     12.45634         0.255793     -0.281663      0.228205
C     10.35284      5.61067      6.59456        -0.141741     -0.841557     -0.605003
C     10.62556     15.36773      6.59456         0.085647      0.361998     -0.274658
C     10.62556      5.61067     14.38384        -0.084548     -0.600015      0.632789
C     10.35284     15.36773     14.38384        -0.017204      0.239389      0.540093
C      6.59456     10.35284      5.61067        -0.699256      0.091434     -0.496706
C      6.59456     10.62556     15.36773        -0.995343      0.218112      0.744743
C     14.38384     10.62556      5.61067         0.894738      0.021211     -0.949801
C     14.38384     10.35284     15.36773         0.953715     -0.085801      0.490299
C      5.61067      6.59456     10.35284        -0.821951     -0.954005     -0.479151
C     15.36773      6.59456     10.62556         0.718923     -0.004465     -0.218128
C      5.61067     14.38384     10.62556        -0.207090      0.885550     -0.022131
C     15.36773     14.38384     10.35284         0.303006      1.475005     -0.060865
C      5.61067     10.35284      6.59456        -0.294280     -0.000560     -0.750880
C     15.36773     10.62556      6.59456         0.387127     -0.372071     -0.884936
C      5.61067     10.62556     14.38384        -0.369982     -0.007841      1.086940
C     15.36773     10.35284     14.38384         0.315335     -0.037047      0.891370
C     10.35284      6.59456      5.61067        -0.001394     -1.049436     -0.328598
C     10.62556      6.59456     15.36773         0.033157     -0.738478      0.567004
C     10.62556     14.38384      5.61067         0.104713      0.946339     -0.430262
C     10.35284     14.38384     15.36773        -0.026466      0.759480      0.381978
C      6.59456      5.61067     10.35284        -0.707884     -1.191641      0.161561
C      6.59456     15.36773     10.62556        -0.784517      0.134327      0.087568
C     14.38384      5.61067     10.62556        -0.046684     -0.493232     -0.404830
C     14.38384     15.36773     10.35284         0.079436      0.633801     -0.075736
C     10.40319      3.19606      7.29314         0.007145      0.630117     -0.843501
C     10.35913      4.25547      6.23373         0.007226     -0.521297      0.120213
C      0.08601      7.29314      7.29314        -0.027408     -1.041970     -0.261888
C      0.13007      6.23373      6.23373        -0.049613      0.395003      0.438851
C      0.08601      3.19606      3.19606         0.038989      1.139716      0.218406
C      0.13007      4.25547      4.25547         0.000600     -0.421839     -0.421452
C     10.40319      7.29314      3.19606        -0.012635     -0.628785      0.215965
C     10.35913      6.23373      4.25547        -0.028400      0.127138     -0.715261
C      7.29314     10.40319      3.19606        -0.432755      0.017084      0.242262
C      6.23373     10.35913      4.25547         0.204143      0.059917     -0.095855
C      7.29314      0.08601      7.29314        -1.224352     -0.080104     -0.379334
C      6.23373      0.13007      6.23373         0.662380     -0.198336      0.370684
C      3.19606      0.08601      3.19606         1.227298     -0.015345      0.282803
C      4.25547      0.13007      4.25547        -0.587138     -0.150276     -0.233197
C      3.19606     10.40319      7.29314         0.551758      0.031543     -0.259253
C      4.25547     10.35913      6.23373        -0.212894      0.069272      0.185185
C      3.19606      7.29314     10.40319         0.289039     -0.554944      0.051511
C      4.25547      6.23373     10.35913        -0.981380     -0.000790      0.161456
C      7.29314      7.29314      0.08601        -0.474227     -0.429650     -0.021206
C      6.23373      6.23373      0.13007         0.446300      0.304939      0.064380
C      3.19606      3.19606      0.08601         0.643189      0.453576     -0.021985
C      4.25547      4.25547      0.13007        -0.144325     -0.774658     -0.113410
C      7.29314      3.19606     10.40319        -0.379670      0.450315      0.053935
C      6.23373      4.25547     10.35913         0.603229     -0.697057      0.198470
O     10.43466      3.58206      8.50569         0.060937      0.219136      0.720119
O     10.54374     17.39634      8.50569         0.052476     -0.027379      0.304228
O     10.54374      3.58206     12.47271         0.005427     -0.037931     -0.239450
O     10.43466     17.39634     12.47271        -0.033685     -0.096065     -0.381664
O      8.50569     10.43466      3.58206         0.577354     -0.047850      0.148313
O      8.50569     10.54374     17.39634         0.876477     -0.083281     -0.151840
O     12.47271     10.54374      3.58206        -0.896967      0.144127      0.132178
O     12.47271     10.43466     17.39634        -0.610954      0.039939     -0.181372
O      3.58206      8.50569     10.43466         0.178896      0.653276     -0.036351
O     17.39634      8.50569     10.54374        -0.138990      0.622019      0.020884
O      3.58206     12.47271     10.54374         0.104453     -0.551725      0.049570
O     17.39634     12.47271     10.43466        -0.178146     -0.559651     -0.057468
O      3.58206     10.43466      8.50569         0.087921     -0.041807      0.386270
O     17.39634     10.54374      8.50569         0.059289      0.104973      0.324766
O      3.58206     10.54374     12.47271        -0.033063      0.027695     -0.230061
O     17.39634     10.43466     12.47271        -0.110884     -0.028538     -0.413433
O     10.43466      8.50569      3.58206        -0.044786      0.658891      0.180894
O     10.54374      8.50569     17.39634        -0.089918      0.809703     -0.153862
O     10.54374     12.47271      3.58206         0.121472     -0.930489      0.173658
O     10.43466     12.47271     17.39634         0.015085     -0.474761     -0.052832
O      8.50569      3.58206     10.43466         0.564800      0.150873     -0.051336
O      8.50569     17.39634     10.54374         0.593390     -0.165553      0.015634
O     12.47271      3.58206     10.54374        -0.741088      0.123771      0.016070
O     12.47271     17.39634     10.43466        -0.502495     -0.126964     -0.031718
O     11.90042     11.90042     19.56718        -0.323494     -0.265635      0.244622
O     19.56718     19.56718     19.56718         0.297343      0.324678      0.205552
O     19.56718     11.90042     11.90042         0.344112     -0.283078     -0.250998
O     11.90042     19.56718     11.90042        -0.280975      0.350593     -0.222633
O      9.45224      1.03696      9.45224        -0.036345      0.105502     -0.125800
O      1.03696      9.45224      9.45224         0.067855     -0.027784     -0.111583
O      1.03696      1.03696      1.03696         0.064151      0.092771      0.102014
O      9.45224      9.45224      1.03696        -0.035545     -0.026314      0.094186
Zr     10.48920      2.52580     10.48920        -0.094385     -0.246195      0.186641
Zr     10.48920     18.45260     10.48920         0.018568      0.056771      0.084445
Zr     10.48920     10.48920      2.52580        -0.316845     -0.225371     -0.402078
Zr     10.48920     10.48920     18.45260         0.184757      0.004227      0.351409
Zr      2.52580     10.48920     10.48920        -0.136374     -0.044769     -0.066439
Zr     18.45260     10.48920     10.48920         0.102452     -0.049790      0.137157
Pd     12.66961      8.22652      9.69843        -0.042942      0.077038     -0.009616
Pd      6.73530      9.63689     10.49598         0.056926     -0.029514     -0.042802
Pd      6.93992     11.79715     11.94185         0.012566     -0.002695     -0.014131
Pd     12.23918     13.46724      7.28977         0.023114      0.007467      0.023842
Pd     12.09500      7.89234      7.04946        -0.015305      0.023448      0.076893
Pd      8.53180      7.35763      6.95647        -0.031705      0.007895      0.003413
Pd     11.54162     11.44819      5.67094        -0.024580      0.013048     -0.020864
Pd     14.48189      8.83670      7.80156        -0.009759      0.001427      0.010591
Pd      9.90119     11.77251      7.85048        -0.037722     -0.007748     -0.022011
Pd      7.08174      7.18429     11.97939        -0.046449      0.001899     -0.032307
Pd      6.45067      7.73265      8.49635         0.017710     -0.009809      0.026991
Pd      7.33904      9.27055     13.47780         0.030374     -0.014201     -0.042204
Pd     11.35356      6.02883      9.22314         0.000669      0.009139      0.010714
Pd      9.90006      9.57987      6.28643        -0.001332      0.000929      0.016760
Pd      9.13129     13.91399      9.25908         0.001370      0.043601      0.049415
Pd     10.89658      7.18665     11.53269         0.029319     -0.034720     -0.032378
Pd     10.32235      9.04716      8.91946         0.191048      0.046351      0.045885
Pd      9.26945     11.49169     10.44204        -0.075219      0.002731      0.025623
Pd      8.87020      7.11158      9.64862        -0.031032     -0.114154     -0.006376
Pd      9.05259      7.27114     13.67075         0.047414     -0.008488      0.034255
Pd      9.09700      9.08139     11.45720        -0.051758      0.121583      0.016074
Pd     12.34001     10.58651      8.09512        -0.009738     -0.079906      0.014626
Pd      7.00699     12.09219      9.21680         0.030115     -0.044523      0.024503
Pd      8.04829      9.86100      8.20850        -0.145606     -0.003077      0.028634
Pd     13.98312      6.29659      8.46762         0.037511      0.001599     -0.002488
Pd     13.31339      8.25691     12.21674         0.000985      0.034074      0.034294
Pd      9.19229     11.30924     13.21833        -0.022614     -0.033417     -0.034459
Pd     14.09173     12.41532      8.81530        -0.008633      0.034898     -0.039659
Pd     13.16632     10.83614     12.93760        -0.025646     -0.005287      0.073516
Pd     14.25038     10.25253     10.39151         0.014417     -0.008687     -0.003201
Pd     11.60453     10.38369     10.86966         0.033646     -0.051160     -0.051855
Pd     11.54584     12.91599      9.76258         0.009026      0.056777      0.002954
Pd     13.69686     12.86632     11.48118         0.028695      0.048167      0.005079
Pd     11.25284     12.65734     12.35358        -0.026003      0.042767     -0.002643
Pd     11.35993     11.47200     14.80341        -0.026713      0.005812     -0.006821
Pd     11.06635      9.22814     13.28974         0.048844      0.061571     -0.042595
Pd      9.46873      9.59331     15.32932        -0.018895     -0.006351     -0.000862
Pd      8.89914     13.73931     11.95007         0.000704     -0.020975     -0.007837
