152
# total energy = -1023.26001394 eVH     10.35389      5.87395      7.64558         0.487662      0.081848      0.710094
H     10.62451     15.10445      7.64558        -0.108004     -0.057792      0.801214
H     10.62451      5.87395     13.33282         0.147312      0.128833     -0.634877
H     10.35389     15.10445     13.33282        -0.179720     -0.116250     -0.545231
H      7.64558     10.35389      5.87395         0.311965     -0.021492      0.194376
H      7.64558     10.62451     15.10445         0.659369     -0.224798     -0.133241
H     13.33282     10.62451      5.87395        -0.760987     -0.140168      0.203073
H     13.33282     10.35389     15.10445        -0.444159     -0.107842     -0.058369
H      5.87395      7.64558     10.35389         0.211264      1.095098     -0.264182
H     15.10445      7.64558     10.62451        -0.173919      0.466792     -0.117142
H      5.87395     13.33282     10.62451         0.161713     -0.428617     -0.066013
H     15.10445     13.33282     10.35389        -0.128663     -0.910223      0.016337
H      5.87395     10.35389      7.64558         0.136716      0.095805      0.461839
H     15.10445     10.62451      7.64558         0.098563     -0.013963      1.086753
H      5.87395     10.62451     13.33282         0.193137     -0.034005     -0.390100
H     15.10445     10.35389     13.33282        -0.119869     -0.051545     -0.551746
H     10.35389      7.64558      5.87395         0.122873      0.890389      0.190530
H     10.62451      7.64558     15.10445        -0.005948      0.507880     -0.164773
H     10.62451     13.33282      5.87395        -0.022774     -0.593790      0.226591
H     10.35389     13.33282     15.10445        -0.306412     -0.886659     -0.120298
H      7.64558      5.87395     10.35389         0.441231      0.096238     -0.051134
H      7.64558     15.10445     10.62451         0.860038     -0.277553      0.038585
H     13.33282      5.87395     10.62451        -0.454796      0.184958     -0.065531
H     13.33282     15.10445     10.35389        -0.656739     -0.097150      0.162709
H     12.45634     12.45634     19.01126         0.252659      0.264839     -0.229341
H     19.01126     19.01126     19.01126        -0.251240     -0.232342     -0.260909
H     19.01126     12.45634     12.45634        -0.237243      0.272983      0.238723
H     12.45634     19.01126     12.45634         0.224762     -0.264442      0.249995
C     10.35284      5.61067      6.59456        -0.193112     -0.367045     -0.024019
C     10.62556     15.36773      6.59456         0.064833      0.380889     -1.195347
C     10.62556      5.61067     14.38384        -0.055894     -0.236948      0.799984
C     10.35284     15.36773     14.38384         0.050506      0.888180      0.403929
C      6.59456     10.35284      5.61067        -0.371676     -0.035952     -0.174285
C      6.59456     10.62556     15.36773        -0.849018      0.207894      0.372277
C     14.38384     10.62556      5.61067         0.444961      0.294514     -0.509187
C     14.38384     10.35284     15.36773         0.784050     -0.117236      0.443272
C      5.61067      6.59456     10.35284        -0.310706     -0.650288      0.424667
C     15.36773      6.59456     10.62556         0.172423     -0.520325      0.076373
C      5.61067     14.38384     10.62556        -0.144287      0.394996     -0.022813
C     15.36773     14.38384     10.35284         0.395081     -0.045619     -0.107671
C      5.61067     10.35284      6.59456        -0.256584     -0.017212     -0.780382
C     15.36773     10.62556      6.59456         0.603582     -0.275629     -1.343701
C      5.61067     10.62556     14.38384        -0.347636      0.001331      0.427620
C     15.36773     10.35284     14.38384         0.496956     -0.167255      1.136362
C     10.35284      6.59456      5.61067        -0.166274     -0.500944     -0.438234
C     10.62556      6.59456     15.36773         0.053160     -0.607831      0.263477
C     10.62556     14.38384      5.61067         0.111377      1.014567     -0.488263
C     10.35284     14.38384     15.36773         0.247802      0.588642      0.551114
C      6.59456      5.61067     10.35284        -0.100307     -0.809647      0.073798
C      6.59456     15.36773     10.62556        -1.517368      0.405412      0.103885
C     14.38384      5.61067     10.62556         0.650168     -0.271975     -0.014998
C     14.38384     15.36773     10.35284        -0.431923      0.680805     -0.312250
C     10.40319      3.19606      7.29314         0.008017      0.846040     -0.297382
C     10.35913      4.25547      6.23373        -0.052526     -0.461851      0.515770
C      0.08601      7.29314      7.29314        -0.007183     -0.268142     -0.495559
C      0.13007      6.23373      6.23373         0.028730      0.134889      0.204541
C      0.08601      3.19606      3.19606        -0.011874      0.678991      0.196341
C      0.13007      4.25547      4.25547        -0.091891     -0.183743     -0.202560
C     10.40319      7.29314      3.19606        -0.007125     -0.663820      0.557230
C     10.35913      6.23373      4.25547        -0.041320      0.281772     -0.614159
C      7.29314     10.40319      3.19606        -0.340412      0.027701      0.926731
C      6.23373     10.35913      4.25547         0.177318      0.030622     -0.123788
C      7.29314      0.08601      7.29314        -0.311845     -0.039334     -0.297028
C      6.23373      0.13007      6.23373         0.337897     -0.052543      0.332429
C      3.19606      0.08601      3.19606         0.540497     -0.034820      0.700249
C      4.25547      0.13007      4.25547        -0.091087     -0.034712     -0.378201
C      3.19606     10.40319      7.29314         0.728655      0.001297     -0.407101
C      4.25547     10.35913      6.23373        -0.158753      0.032775      0.088339
C      3.19606      7.29314     10.40319         0.662155     -1.286524     -0.009921
C      4.25547      6.23373     10.35913        -0.644838      0.913119      0.084900
C      7.29314      7.29314      0.08601        -0.661567     -0.184488     -0.019394
C      6.23373      6.23373      0.13007         0.212126      0.205107      0.014347
C      3.19606      3.19606      0.08601         0.266197      0.291367     -0.021215
C      4.25547      4.25547      0.13007        -0.072551     -0.037144     -0.001270
C      7.29314      3.19606     10.40319        -0.363541      0.994741      0.016287
C      6.23373      4.25547     10.35913         1.060874     -0.027123      0.015291
O     10.43466      3.58206      8.50569        -0.043569      0.045967      0.385123
O     10.54374     17.39634      8.50569        -0.037414     -0.167084      0.577909
O     10.54374      3.58206     12.47271         0.051178      0.052470     -0.302068
O     10.43466     17.39634     12.47271        -0.010654     -0.136031     -0.625511
O      8.50569     10.43466      3.58206         0.363241     -0.025833     -0.026837
O      8.50569     10.54374     17.39634         0.473339      0.045356     -0.146540
O     12.47271     10.54374      3.58206        -0.491484      0.012824      0.084014
O     12.47271     10.43466     17.39634        -0.812879      0.002751     -0.196681
O      3.58206      8.50569     10.43466         0.114218      1.047744      0.016888
O     17.39634      8.50569     10.54374        -0.035892      0.318128      0.074355
O      3.58206     12.47271     10.54374         0.072243     -0.459637      0.050861
O     17.39634     12.47271     10.43466        -0.175938     -0.890220      0.054526
O      3.58206     10.43466      8.50569        -0.065953     -0.069774      0.321308
O     17.39634     10.54374      8.50569        -0.130625      0.042683      0.460588
O      3.58206     10.54374     12.47271         0.084860     -0.023349     -0.630345
O     17.39634     10.43466     12.47271        -0.182210      0.052984     -0.775035
O     10.43466      8.50569      3.58206         0.029563      0.656915      0.156211
O     10.54374      8.50569     17.39634         0.062186      0.454422     -0.086402
O     10.54374     12.47271      3.58206        -0.015796     -0.757579      0.235597
O     10.43466     12.47271     17.39634         0.034914     -0.856153     -0.241440
O      8.50569      3.58206     10.43466         0.446506      0.024170     -0.038594
O      8.50569     17.39634     10.54374         0.679832     -0.262938     -0.059459
O     12.47271      3.58206     10.54374        -0.462023      0.152924      0.042884
O     12.47271     17.39634     10.43466        -0.542914     -0.018746     -0.008049
O     11.90042     11.90042     19.56718        -0.293323     -0.313995      0.255675
O     19.56718     19.56718     19.56718         0.283430      0.266044      0.311434
O     19.56718     11.90042     11.90042         0.262294     -0.321513     -0.240017
O     11.90042     19.56718     11.90042        -0.271255      0.279801     -0.265043
O      9.45224      1.03696      9.45224        -0.081938      0.042555     -0.068941
O      1.03696      9.45224      9.45224         0.017066     -0.166451     -0.097570
O      1.03696      1.03696      1.03696         0.002054      0.070368      0.182628
O      9.45224      9.45224      1.03696        -0.062130     -0.096402      0.110983
Zr     10.48920      2.52580     10.48920        -0.000882     -0.094506     -0.057751
Zr     10.48920     18.45260     10.48920         0.123251      0.341857     -0.007470
Zr     10.48920     10.48920      2.52580         0.015179     -0.048033     -0.406981
Zr     10.48920     10.48920     18.45260        -0.161426     -0.063329      0.378538
Zr      2.52580     10.48920     10.48920        -0.330264      0.244206     -0.123477
Zr     18.45260     10.48920     10.48920         0.275999     -0.014142     -0.284333
Pd      8.98502     10.13137     13.31709        -0.050451     -0.029099      0.008664
Pd     10.69366      9.70400     10.83471        -0.007943     -0.038143     -0.063495
Pd     13.73146      8.42033     12.57651        -0.030139      0.044691     -0.016580
Pd     11.00757     10.91356     14.97352        -0.026568     -0.020826      0.016004
Pd     12.90890     11.04276     12.97411         0.021885      0.022849      0.054385
Pd     15.09233     11.09319     11.31350        -0.018570     -0.036913     -0.002701
Pd      6.60741      7.70738     12.31990         0.003552      0.032989      0.012981
Pd      9.31734      7.30336      9.86387        -0.008417     -0.003123     -0.016376
Pd      9.23602      7.47905     12.62572         0.007991      0.004283     -0.022971
Pd     11.64573      7.17374     11.41113        -0.002843      0.015654     -0.014538
Pd     11.69634      7.99828      8.88780         0.012275     -0.036142     -0.038343
Pd      7.36918     11.78177     11.78349        -0.018964     -0.002151     -0.007275
Pd      9.19013     14.73563      9.43810        -0.001120     -0.041337     -0.003012
Pd      8.39419     12.55545     14.26298        -0.031640     -0.010725      0.011321
Pd     14.09367     14.25425      8.31223         0.006284     -0.004738      0.000669
Pd     11.50403     13.64549      8.73058         0.017125     -0.011282      0.023068
Pd     14.16053     11.69510      8.88557        -0.015205     -0.007994      0.007923
Pd      8.71707     14.03694     12.07725        -0.008245      0.001401      0.006031
Pd     12.27041     13.51899     14.14433        -0.005847      0.028942      0.000058
Pd     11.34338     14.41699     11.44223         0.008761     -0.028725      0.003683
Pd     14.07330     13.60122     12.26592         0.002676     -0.014037     -0.009023
Pd     12.42265     12.15326     10.72550        -0.006892     -0.063101      0.020752
Pd     12.75247     12.53554      6.67326        -0.003147      0.011942     -0.008839
Pd     13.93324      9.00084      7.97711         0.009281     -0.011451     -0.032284
Pd      6.94343      8.50146      8.76253         0.003299     -0.012558     -0.014276
Pd      5.62573     10.10218     10.71385        -0.007200     -0.008192     -0.054701
Pd      9.39671      9.47396      8.09876        -0.005407     -0.026570     -0.058880
Pd      8.57056      7.03741      7.23471        -0.020871     -0.034088     -0.015937
Pd      9.76184     12.12572     10.37666        -0.012190     -0.032367      0.042255
Pd     11.63590     10.82039      8.47285        -0.013321     -0.004453     -0.029547
Pd     11.58613      9.09365      6.45390         0.022434     -0.016513     -0.039248
Pd     10.09818     11.33939      6.27303         0.031418     -0.026833     -0.087864
Ir     11.29365      9.01951     13.20847        -0.016495      0.010932     -0.046695
Ir     13.22228      9.61231     10.36696        -0.006318     -0.007716     -0.001613
Ir     10.54961     12.23171     12.75096         0.002326     -0.021346      0.001413
Ir      7.60225     11.00862      9.25706         0.037000      0.009772     -0.028383
Ir      8.90457     12.57436      8.07260        -0.002838     -0.003480      0.018299
Ir      8.19836      9.31564     11.00747        -0.003315     -0.022548     -0.004313
