40
# total energy = -343.82768868 eVC      1.19357      4.91066      7.50000         0.128250      0.283443      0.000000
C     13.93333      3.45260      7.50000        -0.128250     -0.283443     -0.000000
C     13.93333      4.91066      7.50000        -0.128250      0.283443     -0.000000
C      1.19357      3.45260      7.50000         0.128250     -0.283443     -0.000000
C      8.75702      0.72903      7.50000         0.128250      0.283443      0.000000
C      6.36988      7.63423      7.50000        -0.128250     -0.283443     -0.000000
C      6.36988      0.72903      7.50000        -0.128250      0.283443     -0.000000
C      8.75702      7.63423      7.50000         0.128250     -0.283443     -0.000000
C      2.48831      2.78622      7.50000         0.108601      0.540543      0.000000
C     12.63859      5.57704      7.50000        -0.108601     -0.540543     -0.000000
C     12.63859      2.78622      7.50000        -0.108601      0.540543     -0.000000
C      2.48831      5.57704      7.50000         0.108601     -0.540543      0.000000
C     10.05176      6.96785      7.50000         0.108601      0.540543      0.000000
C      5.07514      1.39541      7.50000        -0.108601     -0.540543     -0.000000
C      5.07514      6.96785      7.50000        -0.108601      0.540543     -0.000000
C     10.05176      1.39541      7.50000         0.108601     -0.540543     -0.000000
C      3.72352      4.88817      7.50000        -0.049036      0.004549     -0.000000
C     11.40338      3.47509      7.50000         0.049036     -0.004549     -0.000000
C     11.40338      4.88817      7.50000         0.049036      0.004549      0.000000
C      3.72352      3.47509      7.50000        -0.049036     -0.004549      0.000000
C     11.28697      0.70654      7.50000        -0.049036      0.004549      0.000000
C      3.83993      7.65672      7.50000         0.049036     -0.004549     -0.000000
C      3.83993      0.70654      7.50000         0.049036      0.004549      0.000000
C     11.28697      7.65672      7.50000        -0.049036     -0.004549     -0.000000
N      2.64467      6.92801      7.50000        -0.847565      1.275400      0.000000
N     12.48223      1.43525      7.50000         0.847565     -1.275400     -0.000000
N     12.48223      6.92801      7.50000         0.847565      1.275400     -0.000000
N      2.64467      1.43525      7.50000        -0.847565     -1.275400      0.000000
N     10.20812      2.74638      7.50000        -0.847565      1.275400      0.000000
N      4.91878      5.61688      7.50000         0.847565     -1.275400     -0.000000
N      4.91878      2.74638      7.50000         0.847565      1.275400     -0.000000
N     10.20812      5.61688      7.50000        -0.847565     -1.275400      0.000000
N      7.56345      6.89848      7.50000        -0.000000     -0.007891     -0.000000
N      7.56345      1.46478      7.50000         0.000000      0.007891      0.000000
N      0.00000      2.71685      7.50000         0.000000     -0.007891     -0.000000
N      0.00000      5.64641      7.50000         0.000000      0.007891     -0.000000
Zr     13.99931      0.00000      7.50000         1.487815     -0.000000     -0.000000
Zr      1.12759     -0.00000      7.50000        -1.487815      0.000000     -0.000000
Zr      6.43586      4.18163      7.50000         1.487815     -0.000000     -0.000000
Zr      8.69104      4.18163      7.50000        -1.487815     -0.000000     -0.000000
