152
# total energy = -1060.12170342 eVH     10.35389      5.87395      7.64558        -0.279881      0.053219      1.120485
H     10.62451     15.10445      7.64558         0.109361     -0.087594      0.911542
H     10.62451      5.87395     13.33282        -0.263586      0.080462     -0.787195
H     10.35389     15.10445     13.33282         0.105651     -0.300427     -0.860279
H      7.64558     10.35389      5.87395         0.930958     -0.149223      0.191146
H      7.64558     10.62451     15.10445         0.319420     -0.029450     -0.073427
H     13.33282     10.62451      5.87395        -0.860513      0.196657      0.205000
H     13.33282     10.35389     15.10445        -0.281730     -0.016248     -0.065319
H      5.87395      7.64558     10.35389         0.087808      0.418265     -0.004985
H     15.10445      7.64558     10.62451        -0.015235      0.488846     -0.022537
H      5.87395     13.33282     10.62451        -0.010845     -0.958233      0.082740
H     15.10445     13.33282     10.35389        -0.097000     -0.325323      0.005252
H      5.87395     10.35389      7.64558         0.286572      0.108003      0.401791
H     15.10445     10.62451      7.64558        -0.123357     -0.168477      0.671941
H      5.87395     10.62451     13.33282        -0.083124      0.462800     -0.627798
H     15.10445     10.35389     13.33282         0.240594     -0.605004     -0.853058
H     10.35389      7.64558      5.87395        -0.036965      0.485448      0.335621
H     10.62451      7.64558     15.10445         0.269128      0.773816     -0.033307
H     10.62451     13.33282      5.87395         0.123843     -0.577567      0.211891
H     10.35389     13.33282     15.10445         0.041511     -0.292136     -0.145155
H      7.64558      5.87395     10.35389         0.352381      0.104260      0.036399
H      7.64558     15.10445     10.62451         0.384027     -0.120153      0.171059
H     13.33282      5.87395     10.62451        -0.317023      0.131878     -0.029873
H     13.33282     15.10445     10.35389        -0.651674     -0.133921      0.152533
H     12.45634     12.45634     19.01126         0.256642      0.271643     -0.227504
H     19.01126     19.01126     19.01126        -0.247637     -0.267446     -0.244488
H     19.01126     12.45634     12.45634        -0.250081      0.270092      0.235536
H     12.45634     19.01126     12.45634         0.290581     -0.235183      0.235187
C     10.35284      5.61067      6.59456         0.399661     -0.409340     -1.415185
C     10.62556     15.36773      6.59456        -0.163330      0.595371     -0.654154
C     10.62556      5.61067     14.38384         0.379890     -0.324271      0.832441
C     10.35284     15.36773     14.38384        -0.219826      0.239163      1.070280
C      6.59456     10.35284      5.61067        -1.374879      0.023198     -0.225746
C      6.59456     10.62556     15.36773        -0.630907      0.063092      0.358100
C     14.38384     10.62556      5.61067         1.317863     -0.171549     -0.637889
C     14.38384     10.35284     15.36773         0.350866     -0.129135      0.363889
C      5.61067      6.59456     10.35284        -0.281210     -0.651871     -0.023511
C     15.36773      6.59456     10.62556         0.421668     -0.939598      0.027961
C      5.61067     14.38384     10.62556        -0.143960      1.161732     -0.178897
C     15.36773     14.38384     10.35284         0.464567      0.661985     -0.028647
C      5.61067     10.35284      6.59456        -0.368160     -0.099472     -0.720831
C     15.36773     10.62556      6.59456         0.397295      0.117706     -0.707611
C      5.61067     10.62556     14.38384        -0.370990     -0.168281      1.234058
C     15.36773     10.35284     14.38384         0.246101      0.195677      1.437662
C     10.35284      6.59456      5.61067        -0.056889     -0.720043     -0.579913
C     10.62556      6.59456     15.36773        -0.112355     -0.912230      0.349465
C     10.62556     14.38384      5.61067        -0.481061      0.413767     -0.713799
C     10.35284     14.38384     15.36773        -0.157809      0.604303      0.423297
C      6.59456      5.61067     10.35284        -0.517463     -0.330945      0.020824
C      6.59456     15.36773     10.62556        -0.361690      0.438478      0.062127
C     14.38384      5.61067     10.62556         0.450910     -0.367087      0.001191
C     14.38384     15.36773     10.35284         1.116751      0.486135     -0.077892
C     10.40319      3.19606      7.29314        -0.002477      0.722333     -0.345596
C     10.35913      4.25547      6.23373         0.014828     -0.416426      0.291878
C      0.08601      7.29314      7.29314        -0.013969     -0.384362     -0.505011
C      0.13007      6.23373      6.23373        -0.066536      0.848385      0.069300
C      0.08601      3.19606      3.19606        -0.003332      0.686491      0.265020
C      0.13007      4.25547      4.25547         0.038187     -0.272435     -0.547731
C     10.40319      7.29314      3.19606        -0.065510     -1.146288      0.600283
C     10.35913      6.23373      4.25547        -0.040798      0.362836     -0.201591
C      7.29314     10.40319      3.19606        -1.084591     -0.055725      0.201076
C      6.23373     10.35913      4.25547         0.370122      0.088715     -0.548318
C      7.29314      0.08601      7.29314        -0.460857      0.031106     -0.491774
C      6.23373      0.13007      6.23373         0.182612      0.123899      0.124832
C      3.19606      0.08601      3.19606         0.695313      0.023317      0.164892
C      4.25547      0.13007      4.25547        -0.176268     -0.053829     -0.355758
C      3.19606     10.40319      7.29314         0.404322     -0.027214     -0.902739
C      4.25547     10.35913      6.23373        -0.150073     -0.072298      0.104426
C      3.19606      7.29314     10.40319         0.612122     -0.399531      0.002971
C      4.25547      6.23373     10.35913        -0.111580      0.182938      0.001041
C      7.29314      7.29314      0.08601        -0.414852     -0.308627     -0.014175
C      6.23373      6.23373      0.13007         0.172996      0.184265     -0.072257
C      3.19606      3.19606      0.08601         0.289943      0.481638     -0.023229
C      4.25547      4.25547      0.13007        -0.408457     -0.233767     -0.033866
C      7.29314      3.19606     10.40319        -0.278133      0.596185     -0.009807
C      6.23373      4.25547     10.35913         0.005451     -0.110646      0.020489
O     10.43466      3.58206      8.50569        -0.028704      0.083655      0.312147
O     10.54374     17.39634      8.50569         0.060794     -0.123895      0.584472
O     10.54374      3.58206     12.47271         0.028336      0.105635     -0.393597
O     10.43466     17.39634     12.47271         0.090899     -0.049494     -0.402188
O      8.50569     10.43466      3.58206         0.707949     -0.062545      0.011140
O      8.50569     10.54374     17.39634         0.513749      0.059888     -0.086025
O     12.47271     10.54374      3.58206        -0.649167      0.119240      0.205931
O     12.47271     10.43466     17.39634        -0.288156     -0.004414      0.027222
O      3.58206      8.50569     10.43466         0.037597      0.458892     -0.070457
O     17.39634      8.50569     10.54374        -0.059549      0.449223      0.057567
O      3.58206     12.47271     10.54374         0.115691     -0.583269      0.001388
O     17.39634     12.47271     10.43466        -0.178243     -0.747345     -0.052567
O      3.58206     10.43466      8.50569         0.207297     -0.060099      0.784881
O     17.39634     10.54374      8.50569        -0.082559      0.073741      0.520700
O      3.58206     10.54374     12.47271        -0.002681     -0.001801     -0.266379
O     17.39634     10.43466     12.47271         0.033809     -0.011700     -0.235082
O     10.43466      8.50569      3.58206        -0.105002      0.563634     -0.114308
O     10.54374      8.50569     17.39634         0.068576      0.512692     -0.083454
O     10.54374     12.47271      3.58206         0.104175     -0.625880      0.131918
O     10.43466     12.47271     17.39634        -0.056508     -0.680149     -0.268437
O      8.50569      3.58206     10.43466         0.392527      0.024726     -0.039051
O      8.50569     17.39634     10.54374         0.630723     -0.155434      0.046699
O     12.47271      3.58206     10.54374        -0.507564      0.126403      0.034599
O     12.47271     17.39634     10.43466        -0.623161     -0.129628      0.042300
O     11.90042     11.90042     19.56718        -0.273388     -0.305081      0.231365
O     19.56718     19.56718     19.56718         0.304639      0.317400      0.298951
O     19.56718     11.90042     11.90042         0.283861     -0.323824     -0.232423
O     11.90042     19.56718     11.90042        -0.315790      0.229057     -0.202976
O      9.45224      1.03696      9.45224        -0.087353      0.092347     -0.064079
O      1.03696      9.45224      9.45224         0.108356     -0.121227     -0.046322
O      1.03696      1.03696      1.03696         0.083804      0.058152      0.096506
O      9.45224      9.45224      1.03696        -0.062086     -0.131437      0.132014
Zr     10.48920      2.52580     10.48920         0.032009     -0.095901      0.088502
Zr     10.48920     18.45260     10.48920        -0.172659      0.258936     -0.346085
Zr     10.48920     10.48920      2.52580         0.120804      0.352438     -0.343855
Zr     10.48920     10.48920     18.45260        -0.083357     -0.211459      0.196561
Zr      2.52580     10.48920     10.48920        -0.257175      0.125823      0.234708
Zr     18.45260     10.48920     10.48920         0.222253     -0.120652     -0.014788
Pd      9.39547     14.28799      9.33068        -0.002805      0.040195     -0.044518
Pd      8.61532     13.69422     13.00152        -0.006320     -0.003526      0.028835
Pd     12.04305     14.40648      8.74586         0.013220     -0.018294      0.009548
Pd     12.74639     12.82073     10.65700        -0.037991      0.009427      0.042838
Pd     12.14712      7.11367     12.61613        -0.000672     -0.001057     -0.002200
Pd     11.19440     14.86002     11.48353        -0.025273      0.040430     -0.030892
Pd     10.05214     12.52745     11.08551        -0.037452      0.060145     -0.047550
Pd     13.48827     12.14179      7.98611         0.013231      0.013176      0.006115
Pd     11.48552     11.56123      6.10839         0.008392      0.005661     -0.006198
Pd      7.86354      8.52812      7.53953         0.011771     -0.045229     -0.004788
Pd      8.73166     11.73684      6.87455        -0.012442      0.012750     -0.012522
Pd     10.30372      9.46253      8.14632        -0.010667     -0.010739      0.003484
Pd      8.50078     14.44326      6.82203        -0.013301      0.013402     -0.031802
Pd     12.36735      9.04113      6.59422         0.000703      0.011285      0.016263
Pd      9.74439      9.61395      5.55481        -0.000095      0.006750      0.001735
Pd      6.87234      9.46347     12.18883        -0.000812      0.002573      0.008017
Pd     12.21066      6.69988      7.88466         0.001367      0.015139      0.018564
Pd      5.94321     10.45446      9.72897        -0.014039     -0.007306      0.001855
Pd      7.57467      7.15026     13.28889        -0.010256      0.017908      0.041575
Ir     11.77297      9.69537     13.06221        -0.056751     -0.007597      0.004731
Ir     13.56736      9.00758     11.45340        -0.018248      0.024047      0.011255
Ir      9.41326      8.83470     13.92386        -0.016335      0.042352      0.046945
Ir     10.54802     10.89121     14.92306        -0.033210     -0.042912      0.053310
Ir      7.28538     12.02052     11.36609        -0.026189     -0.004260     -0.025710
Ir     14.67702     10.86321     10.13090        -0.025238      0.038078      0.050582
Ir     12.19836     10.49758      9.64902         0.010975      0.007299     -0.015617
Ir      8.80598     11.04569     13.00392         0.075305     -0.025304      0.014433
Ir     10.13838      9.87602     11.19045        -0.005947      0.003011     -0.032347
Ir     13.72624     11.36981     12.45293        -0.048352      0.002414      0.064595
Ir     11.57912     12.27443     13.11432        -0.119423     -0.028275      0.008223
Ir      8.52298     11.07818      9.36842        -0.030823      0.039260     -0.038119
Ir     11.60139      7.97977     10.07938        -0.005571      0.009931      0.015634
Ir      7.24643     13.01591      8.70252         0.013947      0.010186      0.006886
Ir      9.52285      6.99722      9.13172         0.001436      0.009027      0.054794
Ir      8.06440      8.75167     10.09528         0.010727     -0.027249     -0.010852
Ir     10.75547     12.09726      8.52565        -0.010973      0.013277     -0.026420
Ir      9.56339      7.48286     11.68634        -0.006792      0.080112      0.013144
Ir     13.70546      8.71300      8.81679         0.006829      0.020517      0.023902
