21
# total energy = -130.20881559 eVH      5.96559      5.96417      7.50000         0.003845      0.008727      0.000000
H      2.20550      8.16183      7.50000        -0.010031      0.000137     -0.000000
H      2.18232      3.80666      7.50000         0.005443     -0.007625      0.000000
H      4.38783      0.01338      7.50000        -0.003845     -0.008727     -0.000000
H      8.14792     -2.18428      7.50000         0.010031     -0.000137      0.000000
H      8.17110      2.17089      7.50000        -0.005443      0.007625      0.000000
C      8.26234     -0.00660      7.50000         0.005213      0.011341     -0.000000
C      6.22801      1.18110      7.50000        -0.015800     -0.002135     -0.000000
C      6.21650     -1.17452      7.50000         0.013191     -0.013712      0.000000
C      2.09108      5.98415      7.50000        -0.005213     -0.011341      0.000000
C      4.12541      4.79645      7.50000         0.015800      0.002135      0.000000
C      4.13692      7.15207      7.50000        -0.013191      0.013712      0.000000
C      7.61052     -1.24023      7.50000         0.033598     -0.026409      0.000000
C      7.62225      1.23340      7.50000         0.006046      0.046583      0.000000
C      5.47414      0.00671      7.50000        -0.043436     -0.013707      0.000000
C      2.74290      7.21778      7.50000        -0.033598      0.026409      0.000000
C      2.73117      4.74415      7.50000        -0.006046     -0.046583      0.000000
C      4.87928      5.97084      7.50000         0.043436      0.013707      0.000000
Au      5.17671     -2.98877      7.50000        -0.000000      0.000000      0.000000
Au      0.00000      5.97755      7.50000        -0.000000     -0.000000      0.000000
Au      5.17671      2.98877      7.50000        -0.000000     -0.000000      0.000000
