152
# total energy = -1004.88420104 eVH     10.35389      5.87395      7.64558         0.057889      0.072788      0.640130
H     10.62451     15.10445      7.64558        -0.120007     -0.154660      0.509104
H     10.62451      5.87395     13.33282         0.449656      0.037503     -0.839366
H     10.35389     15.10445     13.33282         0.036184     -0.159322     -0.453777
H      7.64558     10.35389      5.87395         0.342830      0.027622      0.158324
H      7.64558     10.62451     15.10445         0.953672      0.564015      0.022660
H     13.33282     10.62451      5.87395        -0.549681      0.350102      0.023979
H     13.33282     10.35389     15.10445        -0.956187     -0.243425      0.137430
H      5.87395      7.64558     10.35389         0.293235      1.379754      0.159910
H     15.10445      7.64558     10.62451        -0.104991      0.539829      0.264425
H      5.87395     13.33282     10.62451         0.184281     -0.562104      0.017512
H     15.10445     13.33282     10.35389         0.005994     -1.065377     -0.337133
H      5.87395     10.35389      7.64558         0.189494      0.039341      0.450180
H     15.10445     10.62451      7.64558        -0.135926      0.594296      0.821102
H      5.87395     10.62451     13.33282        -0.035867      0.597405     -1.305821
H     15.10445     10.35389     13.33282        -0.003600     -0.139496     -0.704799
H     10.35389      7.64558      5.87395         0.110643      1.370767      0.032736
H     10.62451      7.64558     15.10445         0.561741      0.722574     -0.134357
H     10.62451     13.33282      5.87395        -0.365702     -0.766840      0.293384
H     10.35389     13.33282     15.10445        -0.163240     -0.466885     -0.316266
H      7.64558      5.87395     10.35389         0.887554      0.013953     -0.187579
H      7.64558     15.10445     10.62451         0.806170     -0.182376     -0.000715
H     13.33282      5.87395     10.62451        -0.604691      0.167223      0.517530
H     13.33282     15.10445     10.35389        -0.441619     -0.086188     -0.160629
H     12.45634     12.45634     19.01126         0.256862      0.270298     -0.229369
H     19.01126     19.01126     19.01126        -0.277505     -0.260962     -0.223598
H     19.01126     12.45634     12.45634        -0.277225      0.259625      0.221391
H     12.45634     19.01126     12.45634         0.238197     -0.268742      0.263150
C     10.35284      5.61067      6.59456        -0.299157     -0.795683     -0.041948
C     10.62556     15.36773      6.59456         0.031178      0.229705     -0.318150
C     10.62556      5.61067     14.38384        -0.070420     -0.447593      0.516045
C     10.35284     15.36773     14.38384         0.007739      0.292909      0.428522
C      6.59456     10.35284      5.61067        -0.364168      0.021689     -0.195363
C      6.59456     10.62556     15.36773        -0.994428      0.180921      0.749102
C     14.38384     10.62556      5.61067         0.224293     -0.347511     -0.740439
C     14.38384     10.35284     15.36773         1.128827     -0.075393      0.227050
C      5.61067      6.59456     10.35284        -0.742839     -0.342391     -0.279332
C     15.36773      6.59456     10.62556         0.617483     -0.100049     -0.305205
C      5.61067     14.38384     10.62556        -0.188095      0.596594      0.002438
C     15.36773     14.38384     10.35284         0.288332      1.017362      0.070978
C      5.61067     10.35284      6.59456        -0.275404      0.012982     -0.768288
C     15.36773     10.62556      6.59456         0.543826     -0.153293      0.110142
C      5.61067     10.62556     14.38384        -0.729728     -0.002358      0.912210
C     15.36773     10.35284     14.38384         0.524880     -0.103688      1.042615
C     10.35284      6.59456      5.61067        -0.054447     -0.846671     -0.535802
C     10.62556      6.59456     15.36773         0.094209     -0.615642      0.486827
C     10.62556     14.38384      5.61067         0.118927      1.170080     -0.291941
C     10.35284     14.38384     15.36773        -0.020406      0.985545      0.519449
C      6.59456      5.61067     10.35284         0.103819     -1.124146      0.309562
C      6.59456     15.36773     10.62556        -0.978144      0.177074      0.100808
C     14.38384      5.61067     10.62556         0.031520     -0.468004     -0.386813
C     14.38384     15.36773     10.35284         0.170610      0.466134     -0.068756
C     10.40319      3.19606      7.29314         0.014680      1.037010     -0.447014
C     10.35913      4.25547      6.23373         0.080599     -0.639713      0.087681
C      0.08601      7.29314      7.29314        -0.031472     -0.934252     -0.173495
C      0.13007      6.23373      6.23373        -0.073504      0.249955      0.349156
C      0.08601      3.19606      3.19606         0.034123      1.334429      0.198002
C      0.13007      4.25547      4.25547        -0.027631     -0.435924     -0.323743
C     10.40319      7.29314      3.19606         0.006754     -0.409076      0.285687
C     10.35913      6.23373      4.25547         0.026424      0.039273     -0.871164
C      7.29314     10.40319      3.19606        -0.257826      0.019590      0.573130
C      6.23373     10.35913      4.25547         0.161365      0.074498     -0.099287
C      7.29314      0.08601      7.29314        -1.133876     -0.088271     -0.276461
C      6.23373      0.13007      6.23373         0.836779     -0.211086      0.381858
C      3.19606      0.08601      3.19606         1.020852     -0.028721      0.550300
C      4.25547      0.13007      4.25547        -0.628097     -0.168634     -0.603438
C      3.19606     10.40319      7.29314         0.607597      0.007050     -0.614180
C      4.25547     10.35913      6.23373        -0.287517      0.105495      0.241127
C      3.19606      7.29314     10.40319         0.337130     -1.122823      0.029920
C      4.25547      6.23373     10.35913        -1.108031      0.045774      0.141112
C      7.29314      7.29314      0.08601        -0.446170     -0.445143     -0.015737
C      6.23373      6.23373      0.13007         0.491627      0.295012      0.027166
C      3.19606      3.19606      0.08601         0.449231      0.365250     -0.034790
C      4.25547      4.25547      0.13007        -0.076592     -0.602883     -0.070862
C      7.29314      3.19606     10.40319        -0.392626      0.497243      0.062958
C      6.23373      4.25547     10.35913         0.328879     -0.768861      0.189152
O     10.43466      3.58206      8.50569        -0.031639      0.008788      0.411159
O     10.54374     17.39634      8.50569         0.067853     -0.044963      0.263507
O     10.54374      3.58206     12.47271         0.015374     -0.098646     -0.115377
O     10.43466     17.39634     12.47271        -0.033712     -0.156435     -0.530408
O      8.50569     10.43466      3.58206         0.294536     -0.020013      0.017596
O      8.50569     10.54374     17.39634         0.907787     -0.073493     -0.171266
O     12.47271     10.54374      3.58206        -0.828818      0.096910      0.073879
O     12.47271     10.43466     17.39634        -0.544324      0.026489     -0.092163
O      3.58206      8.50569     10.43466         0.177794      1.013148     -0.032186
O     17.39634      8.50569     10.54374        -0.148445      0.622147      0.054398
O      3.58206     12.47271     10.54374         0.101318     -0.490827      0.040168
O     17.39634     12.47271     10.43466        -0.152972     -0.598989     -0.031047
O      3.58206     10.43466      8.50569         0.076597     -0.080880      0.567242
O     17.39634     10.54374      8.50569         0.037479      0.106298      0.341527
O      3.58206     10.54374     12.47271         0.010881      0.037980     -0.473705
O     17.39634     10.43466     12.47271        -0.232859     -0.034150     -0.696408
O     10.43466      8.50569      3.58206        -0.043693      0.508361      0.146032
O     10.54374      8.50569     17.39634        -0.077261      0.738217     -0.207898
O     10.54374     12.47271      3.58206         0.049768     -0.975998      0.166528
O     10.43466     12.47271     17.39634         0.079743     -0.899540     -0.233202
O      8.50569      3.58206     10.43466         0.573724      0.142011     -0.058841
O      8.50569     17.39634     10.54374         0.542843     -0.165458     -0.002873
O     12.47271      3.58206     10.54374        -0.626481      0.167484      0.018681
O     12.47271     17.39634     10.43466        -0.339821      0.017086     -0.046328
O     11.90042     11.90042     19.56718        -0.291860     -0.310241      0.221794
O     19.56718     19.56718     19.56718         0.317301      0.305234      0.212454
O     19.56718     11.90042     11.90042         0.318727     -0.264726     -0.238472
O     11.90042     19.56718     11.90042        -0.251718      0.319648     -0.314014
O      9.45224      1.03696      9.45224        -0.010994      0.063788     -0.154620
O      1.03696      9.45224      9.45224         0.067990     -0.055361     -0.178549
O      1.03696      1.03696      1.03696         0.096050      0.145302      0.038740
O      9.45224      9.45224      1.03696        -0.088373     -0.087757      0.018743
Zr     10.48920      2.52580     10.48920        -0.053247     -0.191768      0.000285
Zr     10.48920     18.45260     10.48920        -0.061510      0.134353      0.225804
Zr     10.48920     10.48920      2.52580        -0.145009     -0.443502     -0.214442
Zr     10.48920     10.48920     18.45260         0.009140      0.033555      0.509014
Zr      2.52580     10.48920     10.48920        -0.284720      0.215980      0.215444
Zr     18.45260     10.48920     10.48920         0.173225     -0.013320     -0.038586
Pd     13.46827      8.75616      9.36276        -0.019338     -0.003191     -0.010595
Pd      5.85561      9.75038     10.03275        -0.041040     -0.038277     -0.046530
Pd      6.91129     11.45853     11.74681         0.066823     -0.063164      0.052475
Pd     12.17309     13.11817      7.42393         0.062068     -0.026546     -0.039598
Pd     12.16273      7.65638      6.93807        -0.024159      0.105127      0.121368
Pd      8.35168      7.09921      6.69761         0.051421      0.045959      0.042158
Pd     11.04981     11.33314      5.60481        -0.047141      0.025143     -0.008743
Pd     14.60844      8.58051      6.93755         0.052535      0.024086     -0.029670
Pd      9.88534     11.68112      8.14163        -0.144295      0.049423     -0.010770
Pd      6.81186      6.84590     12.25738        -0.065660     -0.025071     -0.094160
Pd      6.39275      7.52296      8.37401         0.031296     -0.071198     -0.020560
Pd      7.07820      9.05254     13.65950         0.122401     -0.066786     -0.008902
Pd     11.62722      6.55609      9.28859         0.009878      0.002541      0.022163
Pd      9.92973      9.31431      6.85219        -0.011330     -0.064472     -0.092286
Pd      9.06000     13.91075      9.46874         0.025499     -0.002612     -0.099770
Pd     10.50402      7.31832     11.47785        -0.066254      0.043277      0.076723
Pd     10.60906      9.07876      9.45568         0.109483     -0.040274     -0.006116
Pd      9.41681     11.29570     10.74710        -0.059127      0.054088     -0.025845
Pd      8.96536      7.02135      9.28007        -0.006785     -0.053667     -0.132114
Pd      9.01372      7.28652     13.60254        -0.062446      0.010065     -0.014571
Pd      8.23586      8.90082     11.24154        -0.007560      0.006705      0.267908
Pd     12.24544     10.36572      7.72275        -0.106637     -0.052509     -0.092039
Pd      7.27303     11.99211      9.17239         0.018823     -0.007687      0.003100
Pd      8.08167      9.54513      8.64499         0.014568      0.125811     -0.086856
Pd     14.15199      6.37116      8.41578         0.027203      0.052498      0.085290
Pd     12.83772      8.50522     11.92519        -0.099361     -0.100682     -0.076003
Pd      8.82222     11.46091     13.52771         0.022575     -0.020723     -0.050866
Pd     13.83821     11.93384      9.09131         0.090110      0.082576      0.010189
Pd     13.00676     10.96797     13.24645         0.011041     -0.116471     -0.120158
Pd     14.73606     10.42096     11.13568        -0.019326     -0.063727      0.031135
Pd     12.07203     10.75635     10.73555        -0.079266     -0.046634      0.035874
Pd     11.47527     13.17594      9.96096         0.042530      0.045139     -0.054809
Pd     13.60477     12.99776     11.65125        -0.047935      0.064849      0.010415
Pd     11.07048     12.67387     12.53387        -0.081199      0.033534     -0.057787
Pd     11.07602     11.45000     14.97244         0.010238     -0.020894      0.034589
Pd     10.59800      9.68687     12.79393         0.030704     -0.151749     -0.101839
Pd      9.37232      9.41263     15.21081         0.106377      0.023634     -0.017729
Pd      8.64572     13.62574     12.05475        -0.026651     -0.049322      0.021997
