20
# total energy = -160.59006349 eVC      8.34291      3.99558      7.50000         0.002264      0.000508      0.000000
C      1.42226      0.00003      7.50000         0.000100     -0.001310      0.000000
C      8.34297     -3.99605      7.50000         0.002151      0.000048      0.000000
C      0.71120      1.23180      7.50000        -0.002264     -0.000508     -0.000000
C      7.63185      5.22736      7.50000        -0.000100      0.001310     -0.000000
C      0.71114      9.22344      7.50000        -0.002151     -0.000048      0.000000
C      7.63844     -2.77570      7.50000        -0.002650      0.003610      0.000000
C      7.63836      2.77522      7.50000         0.003991      0.007221     -0.000000
C      2.83135     -0.00012      7.50000         0.010917      0.000591     -0.000000
C      1.41568      8.00308      7.50000         0.002650     -0.003610      0.000000
C      1.41576      2.45217      7.50000        -0.003991     -0.007221     -0.000000
C      6.22276      5.22750      7.50000        -0.010917     -0.000591      0.000000
N      7.05051     -1.75731      7.50000         0.001476     -0.002336      0.000000
N      7.05058      1.75689      7.50000        -0.005198     -0.008416      0.000000
N      4.00731     -0.00014      7.50000        -0.007719      0.000102      0.000000
N      2.00360      6.98469      7.50000        -0.001476      0.002336      0.000000
N      2.00353      3.47050      7.50000         0.005198      0.008416      0.000000
N      5.04680      5.22752      7.50000         0.007719     -0.000102      0.000000
Pd      6.03611     -0.00024      7.50000         0.000359      0.000040      0.000000
Pd      3.01800      5.22762      7.50000        -0.000359     -0.000040      0.000000
