152
# total energy = -1001.98926804 eVH     10.35389      5.87395      7.64558         0.059357      0.087754      1.395719
H     10.62451     15.10445      7.64558         0.028186     -0.016622      1.066267
H     10.62451      5.87395     13.33282         0.286384      0.062736     -1.259129
H     10.35389     15.10445     13.33282        -0.201062     -0.169635     -0.962522
H      7.64558     10.35389      5.87395         0.997727      0.467139     -0.250253
H      7.64558     10.62451     15.10445         0.604036      0.190708      0.017673
H     13.33282     10.62451      5.87395        -1.094673      0.431851     -0.208420
H     13.33282     10.35389     15.10445        -0.601765     -0.095827      0.004983
H      5.87395      7.64558     10.35389        -0.505762      2.192741      0.642842
H     15.10445      7.64558     10.62451         0.187096      1.506021     -0.069712
H      5.87395     13.33282     10.62451        -0.188144     -1.095084     -0.368657
H     15.10445     13.33282     10.35389         0.147939     -1.219769     -0.332295
H      5.87395     10.35389      7.64558        -1.112403      0.425340      1.455895
H     15.10445     10.62451      7.64558         0.404041      0.447200      1.374178
H      5.87395     10.62451     13.33282        -0.903397      0.455115     -1.228391
H     15.10445     10.35389     13.33282         0.906373     -0.077968     -1.103678
H     10.35389      7.64558      5.87395         0.378710      1.049522     -0.045724
H     10.62451      7.64558     15.10445         0.216337      0.580152     -0.098686
H     10.62451     13.33282      5.87395        -0.581560     -1.238081     -0.208648
H     10.35389     13.33282     15.10445        -0.096900     -0.466213     -0.146721
H      7.64558      5.87395     10.35389         0.702931     -0.141150      0.072749
H      7.64558     15.10445     10.62451         0.586915     -0.129588     -0.143558
H     13.33282      5.87395     10.62451        -0.830085      0.053379      0.032481
H     13.33282     15.10445     10.35389        -0.433729     -0.080196     -0.058568
H     12.45634     12.45634     19.01126         0.254460      0.234187     -0.251805
H     19.01126     19.01126     19.01126        -0.250722     -0.247432     -0.243591
H     19.01126     12.45634     12.45634        -0.262149      0.267755      0.228132
H     12.45634     19.01126     12.45634         0.266586     -0.271725      0.219212
C     10.35284      5.61067      6.59456        -0.100539     -0.877200     -1.357713
C     10.62556     15.36773      6.59456        -0.192771      0.625594     -0.893419
C     10.62556      5.61067     14.38384        -0.292364     -0.408288      1.580574
C     10.35284     15.36773     14.38384         0.172595      0.255505      0.992049
C      6.59456     10.35284      5.61067        -1.956017      0.167731     -1.262935
C      6.59456     10.62556     15.36773        -0.958928      0.137588      0.697104
C     14.38384     10.62556      5.61067         1.804557      0.136290     -0.995802
C     14.38384     10.35284     15.36773         0.995629     -0.012019      0.575550
C      5.61067      6.59456     10.35284        -0.719398     -1.730065      0.124893
C     15.36773      6.59456     10.62556         0.406463     -0.872193     -0.065744
C      5.61067     14.38384     10.62556        -0.222855      1.178902      0.052241
C     15.36773     14.38384     10.35284         0.252192      1.357895      0.038193
C      5.61067     10.35284      6.59456        -0.499779      0.019137     -1.869910
C     15.36773     10.62556      6.59456         0.547148      0.174435     -1.286086
C      5.61067     10.62556     14.38384        -0.017860     -0.052339      1.643249
C     15.36773     10.35284     14.38384         0.007715     -0.016981      1.601580
C     10.35284      6.59456      5.61067         0.035391     -1.151270     -0.808836
C     10.62556      6.59456     15.36773         0.119823     -0.506002      0.558033
C     10.62556     14.38384      5.61067         0.128379      1.209548     -0.618929
C     10.35284     14.38384     15.36773        -0.030776      0.441949      0.410873
C      6.59456      5.61067     10.35284        -0.421717     -1.177190      0.046358
C      6.59456     15.36773     10.62556        -0.884554      0.726818     -0.030082
C     14.38384      5.61067     10.62556         0.730391     -0.833458     -0.167940
C     14.38384     15.36773     10.35284         0.420335      0.600808     -0.030602
C     10.40319      3.19606      7.29314        -0.029201      0.237850     -0.707316
C     10.35913      4.25547      6.23373        -0.050759     -0.564228      0.143197
C      0.08601      7.29314      7.29314        -0.002693     -0.358836     -0.323174
C      0.13007      6.23373      6.23373         0.005801      0.384042      0.255519
C      0.08601      3.19606      3.19606         0.027734      0.525557      0.565530
C      0.13007      4.25547      4.25547         0.013902     -0.509920     -0.465687
C     10.40319      7.29314      3.19606        -0.057306     -0.876520      0.251523
C     10.35913      6.23373      4.25547         0.000958      0.302990     -0.551669
C      7.29314     10.40319      3.19606        -0.808473     -0.025611      0.072798
C      6.23373     10.35913      4.25547         0.350399     -0.040518     -0.422553
C      7.29314      0.08601      7.29314        -0.373701     -0.045653     -0.257196
C      6.23373      0.13007      6.23373         0.401266     -0.150330      0.318971
C      3.19606      0.08601      3.19606         0.995473     -0.012091      0.205681
C      4.25547      0.13007      4.25547        -0.465406     -0.210378     -0.536224
C      3.19606     10.40319      7.29314         0.268534     -0.006820     -0.223681
C      4.25547     10.35913      6.23373        -0.273104     -0.025929      0.390136
C      3.19606      7.29314     10.40319         0.266884     -0.432739      0.000454
C      4.25547      6.23373     10.35913        -0.833359      0.143372      0.068934
C      7.29314      7.29314      0.08601        -0.417675     -0.333690      0.002330
C      6.23373      6.23373      0.13007         0.676446      0.165100      0.023923
C      3.19606      3.19606      0.08601         0.761901      0.312574      0.012870
C      4.25547      4.25547      0.13007        -0.401042     -0.569289     -0.006578
C      7.29314      3.19606     10.40319        -0.322881      0.392602      0.012793
C      6.23373      4.25547     10.35913         0.426048     -0.432337      0.039108
O     10.43466      3.58206      8.50569         0.081367      0.222284      0.654893
O     10.54374     17.39634      8.50569         0.013379     -0.170728      0.453206
O     10.54374      3.58206     12.47271         0.100106      0.153060     -0.534299
O     10.43466     17.39634     12.47271        -0.023415     -0.068478     -0.334029
O      8.50569     10.43466      3.58206         0.674139     -0.130167      0.221220
O      8.50569     10.54374     17.39634         0.536525      0.004000     -0.220587
O     12.47271     10.54374      3.58206        -0.833498      0.061799      0.266752
O     12.47271     10.43466     17.39634        -0.462947      0.000382     -0.206819
O      3.58206      8.50569     10.43466         0.170775      0.577240     -0.017574
O     17.39634      8.50569     10.54374        -0.152459      0.474073      0.040864
O      3.58206     12.47271     10.54374         0.075420     -0.381802      0.028159
O     17.39634     12.47271     10.43466        -0.176484     -0.515188     -0.024000
O      3.58206     10.43466      8.50569         0.178102     -0.018540      0.383493
O     17.39634     10.54374      8.50569        -0.159033      0.053465      0.399708
O      3.58206     10.54374     12.47271        -0.009187      0.047764     -0.188692
O     17.39634     10.43466     12.47271        -0.045315     -0.006678     -0.180489
O     10.43466      8.50569      3.58206        -0.099471      0.704973      0.148969
O     10.54374      8.50569     17.39634         0.005826      0.531606     -0.186456
O     10.54374     12.47271      3.58206         0.034292     -0.499439      0.048180
O     10.43466     12.47271     17.39634        -0.028198     -0.386263     -0.083557
O      8.50569      3.58206     10.43466         0.560023      0.135807     -0.033384
O      8.50569     17.39634     10.54374         0.583377     -0.191803      0.049082
O     12.47271      3.58206     10.54374        -0.746303      0.193978      0.041560
O     12.47271     17.39634     10.43466        -0.509645     -0.137935     -0.021150
O     11.90042     11.90042     19.56718        -0.293956     -0.251086      0.298007
O     19.56718     19.56718     19.56718         0.298403      0.304538      0.295016
O     19.56718     11.90042     11.90042         0.318917     -0.302401     -0.215974
O     11.90042     19.56718     11.90042        -0.309237      0.329748     -0.195285
O      9.45224      1.03696      9.45224        -0.023158      0.101156     -0.043446
O      1.03696      9.45224      9.45224         0.059020     -0.023396     -0.049462
O      1.03696      1.03696      1.03696         0.056263      0.099923      0.115153
O      9.45224      9.45224      1.03696        -0.057817     -0.039698      0.144077
Zr     10.48920      2.52580     10.48920        -0.206723     -0.294428     -0.034805
Zr     10.48920     18.45260     10.48920         0.088519      0.100475     -0.116939
Zr     10.48920     10.48920      2.52580        -0.029542      0.061915     -0.369588
Zr     10.48920     10.48920     18.45260        -0.007918     -0.062203      0.177788
Zr      2.52580     10.48920     10.48920        -0.106923     -0.116938     -0.106415
Zr     18.45260     10.48920     10.48920         0.092035      0.000896     -0.110699
Pd     11.77196      8.61758     10.21914        -0.324230     -0.093195      0.102950
Pd      6.99729     10.23328     10.29853         0.064750     -0.207657      0.090303
Pd      7.25751     12.62412     11.67778        -0.210071      0.049280      0.071070
Pd     11.82201     13.23081      7.34131         0.125129      0.096502     -0.043061
Pd     11.39438      8.37213      7.46537        -0.239525     -0.307184     -0.245585
Pd      8.78805      7.06939      7.47436         0.313041      0.153570     -0.372499
Pd     11.40707     10.91451      5.87912         0.182615      0.014794      0.349356
Pd     13.43044      9.76456      7.61808         0.609286     -0.225026     -0.064405
Pd      9.32695     11.83361      7.26063        -0.056562     -0.081507      0.186870
Pd      7.07811      7.81325     11.80721        -0.122163     -0.043018     -0.199657
Pd      6.83479      7.70617      8.88992         0.119522      0.219527     -0.274498
Pd      7.46233     10.16227     12.81663        -0.310379      0.092623      0.484580
Pd     11.56019      6.14189      9.00023        -0.129690     -0.009551      0.126522
Pd      9.29569      9.36544      5.86829         0.104523      0.032605      0.328784
Pd      9.21226     14.14692      8.68488         0.209004     -0.105354      0.052112
Pd     11.50749      6.24228     11.64746         0.012831      0.253090      0.123624
Pd      9.55890      9.28776      8.97625         0.079137      0.165663      0.145132
Pd      9.20358     11.80633     10.05182         0.320675     -0.107996      0.113415
Pd      9.35334      7.06932     10.29109        -0.084831     -0.136465     -0.062976
Pd      9.18565      7.16950     13.08506         0.175206      0.051510      0.188603
Pd      9.45790      9.44783     11.54329         0.108993     -0.025916     -0.146361
Pd     11.48299     11.03403      8.77033         0.033914     -0.009811     -0.021260
Pd      7.01270     12.59137      8.72884         0.040761     -0.215801      0.070889
Pd      7.53193      9.93884      7.85171         0.065965      0.100031     -0.319289
Pd     13.87786      7.49668      8.90975         0.064189     -0.004007     -0.034572
Pd     13.70404      7.91444     11.90126         0.332864     -0.148535      0.313757
Pd      9.42962     11.98136     12.90199        -0.107986     -0.041988      0.111338
Pd     13.91014     12.47101      8.69776        -0.054865     -0.248623      0.083040
Pd     13.48161     10.44788     12.71960         0.133355     -0.225126      0.173911
Pd     13.86181     10.17643     10.14555         0.214333     -0.004819      0.214663
Pd     11.46010     11.16565     11.40203        -0.022240     -0.093923     -0.067455
Pd     11.53737     13.47565     10.01606         0.025463      0.042427     -0.265869
Pd     13.71082     12.66066     11.40869         0.080526      0.097730      0.008669
Pd     11.67359     13.54574     12.77931        -0.046292      0.094774      0.169456
Pd     11.53874     11.27523     14.25313        -0.024980      0.089865      0.260133
Pd     11.49875      8.71695     12.99780         0.188894     -0.092761      0.106259
Pd      9.45847      9.58190     14.40531        -0.008252     -0.010275      0.265784
Pd      9.40441     14.26929     11.35096         0.044302     -0.144068      0.151628
