152
# total energy = -1023.26635194 eVH     10.35389      5.87395      7.64558         0.495751      0.085175      0.719794
H     10.62451     15.10445      7.64558        -0.084144     -0.074494      0.792403
H     10.62451      5.87395     13.33282         0.145938      0.131984     -0.632884
H     10.35389     15.10445     13.33282        -0.183265     -0.121210     -0.547162
H      7.64558     10.35389      5.87395         0.308612     -0.021168      0.188517
H      7.64558     10.62451     15.10445         0.672929     -0.225123     -0.124782
H     13.33282     10.62451      5.87395        -0.771762     -0.147410      0.203025
H     13.33282     10.35389     15.10445        -0.449575     -0.105405     -0.052086
H      5.87395      7.64558     10.35389         0.206370      1.055743     -0.248108
H     15.10445      7.64558     10.62451        -0.175208      0.463130     -0.114838
H      5.87395     13.33282     10.62451         0.162826     -0.421115     -0.060456
H     15.10445     13.33282     10.35389        -0.127967     -0.920142      0.020914
H      5.87395     10.35389      7.64558         0.132320      0.098315      0.456223
H     15.10445     10.62451      7.64558         0.097787     -0.019005      1.073770
H      5.87395     10.62451     13.33282         0.184049     -0.027939     -0.379036
H     15.10445     10.35389     13.33282        -0.127973     -0.061519     -0.551201
H     10.35389      7.64558      5.87395         0.112359      0.862123      0.189357
H     10.62451      7.64558     15.10445        -0.006233      0.494489     -0.164955
H     10.62451     13.33282      5.87395        -0.013809     -0.572306      0.216398
H     10.35389     13.33282     15.10445        -0.323951     -0.887868     -0.130596
H      7.64558      5.87395     10.35389         0.448389      0.096871     -0.034224
H      7.64558     15.10445     10.62451         0.823340     -0.276853      0.029179
H     13.33282      5.87395     10.62451        -0.448310      0.186391     -0.065054
H     13.33282     15.10445     10.35389        -0.654528     -0.097128      0.169271
H     12.45634     12.45634     19.01126         0.252115      0.265385     -0.229531
H     19.01126     19.01126     19.01126        -0.252459     -0.231364     -0.260723
H     19.01126     12.45634     12.45634        -0.234706      0.272747      0.240298
H     12.45634     19.01126     12.45634         0.225179     -0.262929      0.249725
C     10.35284      5.61067      6.59456        -0.202621     -0.361993     -0.026430
C     10.62556     15.36773      6.59456         0.063498      0.369168     -1.184589
C     10.62556      5.61067     14.38384        -0.059380     -0.245641      0.805757
C     10.35284     15.36773     14.38384         0.042107      0.860739      0.397085
C      6.59456     10.35284      5.61067        -0.364817     -0.037520     -0.179658
C      6.59456     10.62556     15.36773        -0.867923      0.218875      0.377540
C     14.38384     10.62556      5.61067         0.472978      0.299595     -0.512312
C     14.38384     10.35284     15.36773         0.776729     -0.111589      0.437345
C      5.61067      6.59456     10.35284        -0.319396     -0.630964      0.435557
C     15.36773      6.59456     10.62556         0.161622     -0.506094      0.078815
C      5.61067     14.38384     10.62556        -0.146989      0.390980     -0.023176
C     15.36773     14.38384     10.35284         0.377254     -0.049775     -0.097337
C      5.61067     10.35284      6.59456        -0.260138     -0.022622     -0.780928
C     15.36773     10.62556      6.59456         0.611085     -0.290098     -1.347432
C      5.61067     10.62556     14.38384        -0.346865     -0.004640      0.395158
C     15.36773     10.35284     14.38384         0.492927     -0.162087      1.143821
C     10.35284      6.59456      5.61067        -0.174560     -0.477719     -0.460906
C     10.62556      6.59456     15.36773         0.052245     -0.593377      0.269407
C     10.62556     14.38384      5.61067         0.094520      0.985646     -0.488738
C     10.35284     14.38384     15.36773         0.259226      0.571255      0.532470
C      6.59456      5.61067     10.35284        -0.147157     -0.825963      0.077193
C      6.59456     15.36773     10.62556        -1.493730      0.410326      0.119108
C     14.38384      5.61067     10.62556         0.643042     -0.270041     -0.014658
C     14.38384     15.36773     10.35284        -0.427367      0.682470     -0.322631
C     10.40319      3.19606      7.29314         0.008905      0.835121     -0.297896
C     10.35913      4.25547      6.23373        -0.042457     -0.474837      0.500581
C      0.08601      7.29314      7.29314        -0.007848     -0.266351     -0.512874
C      0.13007      6.23373      6.23373         0.024379      0.135056      0.195298
C      0.08601      3.19606      3.19606        -0.012408      0.600962      0.195221
C      0.13007      4.25547      4.25547        -0.090841     -0.172920     -0.191588
C     10.40319      7.29314      3.19606        -0.007020     -0.651511      0.551836
C     10.35913      6.23373      4.25547        -0.037056      0.277433     -0.603544
C      7.29314     10.40319      3.19606        -0.298391      0.028826      0.942908
C      6.23373     10.35913      4.25547         0.167524      0.033998     -0.126547
C      7.29314      0.08601      7.29314        -0.324718     -0.035793     -0.300259
C      6.23373      0.13007      6.23373         0.340241     -0.052643      0.334331
C      3.19606      0.08601      3.19606         0.528972     -0.030266      0.671040
C      4.25547      0.13007      4.25547        -0.094285     -0.031442     -0.366606
C      3.19606     10.40319      7.29314         0.710965      0.001436     -0.426625
C      4.25547     10.35913      6.23373        -0.157927      0.031154      0.086703
C      3.19606      7.29314     10.40319         0.666790     -1.298682     -0.014152
C      4.25547      6.23373     10.35913        -0.649439      0.898606      0.073598
C      7.29314      7.29314      0.08601        -0.681220     -0.188300     -0.015121
C      6.23373      6.23373      0.13007         0.211097      0.189566      0.018834
C      3.19606      3.19606      0.08601         0.269557      0.304870     -0.019878
C      4.25547      4.25547      0.13007        -0.066952     -0.042608     -0.003209
C      7.29314      3.19606     10.40319        -0.366728      0.983533      0.015561
C      6.23373      4.25547     10.35913         1.073620     -0.015301      0.009036
O     10.43466      3.58206      8.50569        -0.043722      0.048200      0.381588
O     10.54374     17.39634      8.50569        -0.041318     -0.171145      0.585948
O     10.54374      3.58206     12.47271         0.049325      0.073426     -0.324103
O     10.43466     17.39634     12.47271        -0.012240     -0.135243     -0.621472
O      8.50569     10.43466      3.58206         0.325539     -0.033187     -0.033648
O      8.50569     10.54374     17.39634         0.482026      0.044148     -0.146853
O     12.47271     10.54374      3.58206        -0.487161      0.006278      0.094372
O     12.47271     10.43466     17.39634        -0.786917     -0.000248     -0.183954
O      3.58206      8.50569     10.43466         0.114987      1.056371      0.013659
O     17.39634      8.50569     10.54374        -0.028207      0.313909      0.072369
O      3.58206     12.47271     10.54374         0.074821     -0.477048      0.048423
O     17.39634     12.47271     10.43466        -0.173576     -0.879878      0.054409
O      3.58206     10.43466      8.50569        -0.061024     -0.067675      0.342680
O     17.39634     10.54374      8.50569        -0.127247      0.041338      0.457887
O      3.58206     10.54374     12.47271         0.090159     -0.018041     -0.628025
O     17.39634     10.43466     12.47271        -0.190890      0.057621     -0.789776
O     10.43466      8.50569      3.58206         0.031278      0.649094      0.163708
O     10.54374      8.50569     17.39634         0.063737      0.444783     -0.080683
O     10.54374     12.47271      3.58206        -0.007529     -0.699336      0.222077
O     10.43466     12.47271     17.39634         0.032320     -0.855797     -0.240377
O      8.50569      3.58206     10.43466         0.451465      0.028448     -0.039366
O      8.50569     17.39634     10.54374         0.695926     -0.260644     -0.061418
O     12.47271      3.58206     10.54374        -0.459430      0.148275      0.041556
O     12.47271     17.39634     10.43466        -0.548003     -0.015905     -0.005617
O     11.90042     11.90042     19.56718        -0.291693     -0.314873      0.253989
O     19.56718     19.56718     19.56718         0.284919      0.262740      0.309219
O     19.56718     11.90042     11.90042         0.259913     -0.323584     -0.244845
O     11.90042     19.56718     11.90042        -0.272239      0.277332     -0.268232
O      9.45224      1.03696      9.45224        -0.080465      0.042286     -0.072613
O      1.03696      9.45224      9.45224         0.018229     -0.168506     -0.097988
O      1.03696      1.03696      1.03696         0.005997      0.067371      0.174041
O      9.45224      9.45224      1.03696        -0.061209     -0.103189      0.106525
Zr     10.48920      2.52580     10.48920        -0.001637     -0.095628     -0.042660
Zr     10.48920     18.45260     10.48920         0.130114      0.359791      0.009959
Zr     10.48920     10.48920      2.52580         0.013994     -0.016206     -0.368163
Zr     10.48920     10.48920     18.45260        -0.162720     -0.051163      0.381468
Zr      2.52580     10.48920     10.48920        -0.353088      0.245907     -0.094444
Zr     18.45260     10.48920     10.48920         0.272769     -0.006126     -0.284976
Pd      8.94973     10.10194     13.31836        -0.018350     -0.012182      0.027199
Pd     10.66526      9.68390     10.81422        -0.035128     -0.018169     -0.059950
Pd     13.70340      8.38963     12.58621         0.001979      0.091856     -0.032906
Pd     10.98293     10.88949     14.97464        -0.032551     -0.023702      0.016720
Pd     12.90528     11.03296     12.97778         0.088775     -0.033638      0.048667
Pd     15.10205     11.06466     11.31601        -0.010405     -0.031503      0.019280
Pd      6.58449      7.73683     12.33620        -0.013227      0.006362      0.032792
Pd      9.30624      7.27178      9.85341         0.026508      0.039715     -0.027537
Pd      9.21702      7.46501     12.61534         0.026985     -0.033034     -0.006848
Pd     11.62457      7.16005     11.40973        -0.002489      0.014110     -0.017056
Pd     11.71194      7.97000      8.89039        -0.022317      0.005125     -0.058183
Pd      7.38603     11.76889     11.76009        -0.045836     -0.006505     -0.006912
Pd      9.22241     14.75861      9.44988         0.025040      0.088653      0.060582
Pd      8.38421     12.53942     14.24768         0.002597     -0.020522     -0.036667
Pd     14.09603     14.24481      8.31384         0.038786      0.003577      0.007640
Pd     11.52047     13.63191      8.73453        -0.072353      0.048017      0.034548
Pd     14.16752     11.68193      8.89677        -0.002820      0.001434      0.008554
Pd      8.73557     14.02409     12.06532         0.004167     -0.028938      0.047370
Pd     12.25677     13.49967     14.13868         0.012582      0.037830     -0.022888
Pd     11.35435     14.40802     11.44701         0.004491     -0.026308      0.015757
Pd     14.07806     13.58016     12.26334        -0.021155     -0.004857      0.032120
Pd     12.42233     12.14882     10.72649        -0.012920     -0.083098      0.026400
Pd     12.74953     12.51536      6.69589         0.023153     -0.021124     -0.065344
Pd     13.94397      8.99150      7.98201        -0.024716      0.016974      0.022570
Pd      6.94072      8.49047      8.75095         0.011233      0.008035     -0.024529
Pd      5.62917     10.10256     10.66803         0.016683      0.020917     -0.055574
Pd      9.39594      9.44252      8.08719         0.030458     -0.060817     -0.023993
Pd      8.55467      7.00603      7.23404        -0.005248     -0.027126     -0.036008
Pd      9.75869     12.12618     10.34714         0.109241     -0.019928      0.090338
Pd     11.64474     10.79500      8.49608        -0.015390     -0.046699     -0.085472
Pd     11.59579      9.08820      6.45192         0.016963      0.002689      0.004683
Pd     10.09114     11.34688      6.35318        -0.036733      0.072136      0.035920
Ir     11.27073      9.01982     13.18949        -0.031618      0.069917     -0.039168
Ir     13.20625      9.61096     10.38017         0.031716     -0.128773     -0.068688
Ir     10.55638     12.18874     12.73084        -0.149601      0.028365     -0.013517
Ir      7.63216     11.00205      9.22660        -0.159769     -0.245902      0.120253
Ir      8.82055     12.64990      8.08493         0.203651      0.002301     -0.292843
Ir      8.17751      9.29442     10.99979         0.015288      0.042706     -0.062319
