8
# total energy = -53.48015219 eVC      1.14292     13.22646      0.00000         0.000000     -0.172899     -0.000000
C      1.14292      4.05974     -0.00000        -0.000000      0.172899      0.000000
O      1.14292      5.24966      0.00000        -0.000000     -0.002293      0.000000
O      1.14292     12.03654     -0.00000        -0.000000      0.002293      0.000000
O     -0.00000     13.99894      0.00000        -0.000000      0.027347     -0.000000
O      0.00000      3.28726     -0.00000         0.000000     -0.027347      0.000000
Ir     -0.00000      8.64310      0.00000        -0.000000      0.000000      0.000000
Ir     -0.00000      0.00000      0.00000        -0.000000      0.000000      0.000000
