152
# total energy = -1060.42039140 eVH     10.35389      5.87395      7.64558        -0.238100      0.133593      1.011164
H     10.62451     15.10445      7.64558         0.241025     -0.079101      0.826144
H     10.62451      5.87395     13.33282        -0.313974      0.073521     -0.768495
H     10.35389     15.10445     13.33282         0.150824     -0.280965     -0.778059
H      7.64558     10.35389      5.87395         0.878133     -0.255428      0.206008
H      7.64558     10.62451     15.10445         0.254429      0.016273     -0.067873
H     13.33282     10.62451      5.87395        -0.844407      0.152234      0.162224
H     13.33282     10.35389     15.10445        -0.295035     -0.068670     -0.046070
H      5.87395      7.64558     10.35389         0.096405      0.425821      0.008167
H     15.10445      7.64558     10.62451        -0.092957      0.537806      0.111042
H      5.87395     13.33282     10.62451         0.006947     -0.948538      0.106132
H     15.10445     13.33282     10.35389        -0.173110     -0.376584      0.023642
H      5.87395     10.35389      7.64558         0.299905      0.052042      0.371764
H     15.10445     10.62451      7.64558        -0.123161     -0.139113      0.626504
H      5.87395     10.62451     13.33282        -0.045840      0.440113     -0.689359
H     15.10445     10.35389     13.33282         0.160837     -0.458755     -0.909607
H     10.35389      7.64558      5.87395         0.022399      0.503113      0.354438
H     10.62451      7.64558     15.10445         0.245073      0.705035     -0.083606
H     10.62451     13.33282      5.87395         0.079337     -0.566439      0.219156
H     10.35389     13.33282     15.10445         0.077838     -0.344945     -0.125985
H      7.64558      5.87395     10.35389         0.392941      0.127336      0.064220
H      7.64558     15.10445     10.62451         0.391412     -0.127696      0.217350
H     13.33282      5.87395     10.62451        -0.308971      0.130195     -0.010918
H     13.33282     15.10445     10.35389        -0.639142     -0.176012      0.176255
H     12.45634     12.45634     19.01126         0.261879      0.270400     -0.222280
H     19.01126     19.01126     19.01126        -0.250972     -0.268102     -0.237669
H     19.01126     12.45634     12.45634        -0.245657      0.269952      0.239349
H     12.45634     19.01126     12.45634         0.294496     -0.228670      0.236165
C     10.35284      5.61067      6.59456         0.391282     -0.353405     -1.248469
C     10.62556     15.36773      6.59456        -0.228382      0.653426     -0.642594
C     10.62556      5.61067     14.38384         0.362575     -0.262894      0.798174
C     10.35284     15.36773     14.38384        -0.190767      0.348295      0.964138
C      6.59456     10.35284      5.61067        -1.297990      0.038583     -0.217209
C      6.59456     10.62556     15.36773        -0.616443      0.063696      0.352043
C     14.38384     10.62556      5.61067         1.390493     -0.173162     -0.621187
C     14.38384     10.35284     15.36773         0.322699     -0.126154      0.380376
C      5.61067      6.59456     10.35284        -0.255455     -0.624447     -0.023338
C     15.36773      6.59456     10.62556         0.378435     -0.854366     -0.078817
C      5.61067     14.38384     10.62556        -0.161713      1.084469     -0.241055
C     15.36773     14.38384     10.35284         0.456107      0.777968     -0.068115
C      5.61067     10.35284      6.59456        -0.324346     -0.115006     -0.635681
C     15.36773     10.62556      6.59456         0.332343      0.115497     -0.560705
C      5.61067     10.62556     14.38384        -0.308384     -0.162312      1.239267
C     15.36773     10.35284     14.38384         0.179751      0.177292      1.268602
C     10.35284      6.59456      5.61067        -0.057423     -0.705233     -0.450344
C     10.62556      6.59456     15.36773        -0.065444     -0.870115      0.379807
C     10.62556     14.38384      5.61067        -0.486850      0.409712     -0.771663
C     10.35284     14.38384     15.36773        -0.166262      0.645131      0.493388
C      6.59456      5.61067     10.35284        -0.545255     -0.317903      0.013697
C      6.59456     15.36773     10.62556        -0.289102      0.478959      0.078041
C     14.38384      5.61067     10.62556         0.422809     -0.324132      0.023509
C     14.38384     15.36773     10.35284         1.063520      0.390719     -0.105372
C     10.40319      3.19606      7.29314        -0.013233      0.890092     -0.363529
C     10.35913      4.25547      6.23373         0.033465     -0.363845      0.294422
C      0.08601      7.29314      7.29314        -0.012718     -0.502396     -0.519169
C      0.13007      6.23373      6.23373        -0.065412      0.815687      0.082665
C      0.08601      3.19606      3.19606        -0.006703      0.690065      0.256787
C      0.13007      4.25547      4.25547         0.067930     -0.263100     -0.606717
C     10.40319      7.29314      3.19606        -0.053066     -1.074994      0.751951
C     10.35913      6.23373      4.25547        -0.053333      0.350405     -0.204520
C      7.29314     10.40319      3.19606        -1.027282     -0.053275      0.247821
C      6.23373     10.35913      4.25547         0.376304      0.111440     -0.517143
C      7.29314      0.08601      7.29314        -0.680038      0.017185     -0.357627
C      6.23373      0.13007      6.23373         0.175455      0.097153      0.110058
C      3.19606      0.08601      3.19606         0.654948      0.009023      0.164325
C      4.25547      0.13007      4.25547        -0.198804     -0.083744     -0.318488
C      3.19606     10.40319      7.29314         0.497415     -0.034215     -0.957223
C      4.25547     10.35913      6.23373        -0.129193     -0.026459      0.157388
C      3.19606      7.29314     10.40319         0.672262     -0.395848      0.006182
C      4.25547      6.23373     10.35913        -0.116650      0.170586      0.003312
C      7.29314      7.29314      0.08601        -0.439332     -0.296372     -0.014492
C      6.23373      6.23373      0.13007         0.192095      0.136010     -0.123116
C      3.19606      3.19606      0.08601         0.326291      0.549162     -0.019400
C      4.25547      4.25547      0.13007        -0.451432     -0.276802     -0.017454
C      7.29314      3.19606     10.40319        -0.286991      0.603799     -0.002084
C      6.23373      4.25547     10.35913         0.013510     -0.140152      0.018869
O     10.43466      3.58206      8.50569        -0.030538      0.039722      0.248396
O     10.54374     17.39634      8.50569         0.056795     -0.081420      0.531784
O     10.54374      3.58206     12.47271         0.031051      0.102660     -0.410960
O     10.43466     17.39634     12.47271         0.090742     -0.057903     -0.489848
O      8.50569     10.43466      3.58206         0.689897     -0.075295      0.036490
O      8.50569     10.54374     17.39634         0.715740      0.079114     -0.120639
O     12.47271     10.54374      3.58206        -0.621632      0.131386      0.210633
O     12.47271     10.43466     17.39634        -0.351241     -0.000705      0.036093
O      3.58206      8.50569     10.43466         0.018470      0.435658     -0.072794
O     17.39634      8.50569     10.54374        -0.069071      0.441450      0.052837
O      3.58206     12.47271     10.54374         0.123176     -0.620657     -0.002270
O     17.39634     12.47271     10.43466        -0.214392     -0.741829     -0.020537
O      3.58206     10.43466      8.50569         0.185446     -0.045140      0.794562
O     17.39634     10.54374      8.50569        -0.009017      0.045998      0.336811
O      3.58206     10.54374     12.47271        -0.003322      0.001357     -0.271089
O     17.39634     10.43466     12.47271        -0.006099     -0.004387     -0.301771
O     10.43466      8.50569      3.58206        -0.115599      0.526928     -0.090571
O     10.54374      8.50569     17.39634         0.057677      0.585312     -0.075178
O     10.54374     12.47271      3.58206         0.103774     -0.617582      0.117232
O     10.43466     12.47271     17.39634        -0.051276     -0.823346     -0.310726
O      8.50569      3.58206     10.43466         0.391456      0.022839     -0.058733
O      8.50569     17.39634     10.54374         0.625924     -0.148431      0.044285
O     12.47271      3.58206     10.54374        -0.518055      0.117029      0.025462
O     12.47271     17.39634     10.43466        -0.636292     -0.108915      0.050265
O     11.90042     11.90042     19.56718        -0.273712     -0.288693      0.220309
O     19.56718     19.56718     19.56718         0.305041      0.314608      0.290469
O     19.56718     11.90042     11.90042         0.280434     -0.318054     -0.242281
O     11.90042     19.56718     11.90042        -0.315800      0.219657     -0.201443
O      9.45224      1.03696      9.45224        -0.104904      0.128984     -0.051904
O      1.03696      9.45224      9.45224         0.137954     -0.135922     -0.048812
O      1.03696      1.03696      1.03696         0.079683      0.071587      0.090345
O      9.45224      9.45224      1.03696        -0.072347     -0.128495      0.141836
Zr     10.48920      2.52580     10.48920         0.036664     -0.140203      0.156167
Zr     10.48920     18.45260     10.48920        -0.180240      0.241649     -0.377361
Zr     10.48920     10.48920      2.52580         0.112231      0.358609     -0.305746
Zr     10.48920     10.48920     18.45260        -0.048001     -0.256251      0.293909
Zr      2.52580     10.48920     10.48920        -0.285623      0.095910      0.252856
Zr     18.45260     10.48920     10.48920         0.176665     -0.143064     -0.043313
Pd      9.34242     14.41744      9.21050         0.011066     -0.059887      0.012696
Pd      8.61073     13.66848     13.13422        -0.033898      0.001909     -0.042464
Pd     12.02861     14.36479      8.79969         0.066349      0.014188      0.084656
Pd     12.57988     12.84269     10.82103        -0.041413      0.028320      0.013724
Pd     12.10522      7.14378     12.62098         0.027710      0.001014     -0.054347
Pd     11.07727     15.05295     11.37972        -0.028770     -0.045110     -0.080999
Pd      9.92176     12.69833     11.00296        -0.029082      0.120432     -0.082755
Pd     13.54806     12.22022      8.03829        -0.021650      0.056822     -0.011669
Pd     11.52428     11.62443      6.10986         0.038337      0.040183      0.056955
Pd      7.92091      8.22809      7.51312        -0.054822     -0.035620     -0.068175
Pd      8.70106     11.77000      6.82448         0.023592      0.029836      0.049852
Pd     10.17443      9.50289      8.20254        -0.048878     -0.008116      0.072726
Pd      8.48416     14.47709      6.68491         0.003519      0.009301      0.034254
Pd     12.34929      9.18870      6.82659        -0.049380     -0.037478      0.145380
Pd      9.78852      9.63274      5.59016         0.009256      0.012580     -0.038692
Pd      6.89243      9.45936     12.19834         0.083932      0.032554      0.017761
Pd     12.25759      6.73397      7.94139         0.026607      0.105958     -0.001740
Pd      5.88956     10.50786      9.77693         0.019800     -0.030102     -0.002260
Pd      7.52749      7.12873     13.33232        -0.029356     -0.076787     -0.078822
Ir     11.57134      9.70643     13.08768         0.145554     -0.045799     -0.010289
Ir     13.44877      9.13340     11.52317        -0.100836      0.113422      0.026620
Ir      9.28146      8.83935     14.01368        -0.002731     -0.015040      0.038588
Ir     10.43000     10.80382     15.11381        -0.023884     -0.013964      0.119349
Ir      7.28662     12.01856     11.40328         0.116760     -0.093934      0.108127
Ir     14.57669     11.04565     10.35598         0.110761     -0.004606     -0.037970
Ir     12.22575     10.54747      9.56048        -0.071127      0.009691     -0.088554
Ir      8.92106     11.06695     12.97277        -0.146343      0.039853     -0.065678
Ir     10.10171      9.96201     11.01720        -0.055500      0.035775     -0.055891
Ir     13.53740     11.42612     12.67890        -0.089992     -0.137998      0.122253
Ir     11.27123     12.23744     13.16550        -0.035229      0.086357     -0.071487
Ir      8.43025     11.18614      9.31726        -0.006894     -0.028953      0.047097
Ir     11.60000      8.01724     10.09670        -0.023779      0.042914     -0.009388
Ir      7.19345     13.12907      8.62830        -0.032020     -0.044961     -0.025601
Ir      9.53856      6.96213      9.26426        -0.051497     -0.005519     -0.055184
Ir      8.02592      8.80204     10.02606        -0.046723      0.089986     -0.023961
Ir     10.71315     12.13633      8.49179         0.009256     -0.061967      0.086407
Ir      9.52634      7.65288     11.75813        -0.022869      0.008995     -0.017579
Ir     13.81617      8.69834      8.98471        -0.021726     -0.100855      0.033178
