13
# total energy = -105.58800147 eVC      1.25811      6.81945      0.00000         0.327995     -0.737641      0.000000
C      3.78917      6.81945      0.00000        -0.327995     -0.737641      0.000000
C      3.78917      1.41306      0.00000        -0.327995      0.737641     -0.000000
C      1.25811      1.41306      0.00000         0.327995      0.737641     -0.000000
C      0.00000      7.52093      0.00000        -0.000000      0.402655     -0.000000
C      0.00000      0.71158      0.00000         0.000000     -0.402655      0.000000
C      2.52364      7.52029      0.00000         0.000000      0.094140      0.000000
C      2.52364      0.71222     -0.00000         0.000000     -0.094140      0.000000
O      1.20339      2.72736     -0.00000        -0.132837     -0.621124      0.000000
O      3.84389      2.72736      0.00000         0.132837     -0.621124      0.000000
O      3.84389      5.50515      0.00000         0.132837      0.621124      0.000000
O      1.20339      5.50515     -0.00000        -0.132837      0.621124      0.000000
Ir      2.52364      4.11625      0.00000         0.000000     -0.000000      0.000000
