152
# total energy = -1061.38495407 eVH     10.35389      5.87395      7.64558        -0.138948      0.130500      0.989425
H     10.62451     15.10445      7.64558         0.252958     -0.080243      0.833990
H     10.62451      5.87395     13.33282        -0.141051      0.084721     -0.502985
H     10.35389     15.10445     13.33282         0.074528     -0.217153     -0.419754
H      7.64558     10.35389      5.87395         0.871131      0.110335      0.207201
H      7.64558     10.62451     15.10445         0.191699     -0.005847     -0.063373
H     13.33282     10.62451      5.87395        -0.642310     -0.016437      0.173088
H     13.33282     10.35389     15.10445        -0.327348     -0.079078     -0.055183
H      5.87395      7.64558     10.35389         0.138824      0.361546     -0.041261
H     15.10445      7.64558     10.62451        -0.132877      0.583371      0.252407
H      5.87395     13.33282     10.62451         0.130740     -0.562901      0.027400
H     15.10445     13.33282     10.35389        -0.239978     -0.439325      0.098099
H      5.87395     10.35389      7.64558         0.193284      0.202433      0.375256
H     15.10445     10.62451      7.64558        -0.171375     -0.205629      0.538154
H      5.87395     10.62451     13.33282         0.032562      0.130533     -0.724147
H     15.10445     10.35389     13.33282         0.087438     -0.277794     -0.718851
H     10.35389      7.64558      5.87395        -0.094520      0.433862      0.248786
H     10.62451      7.64558     15.10445         0.419032      0.693145     -0.102651
H     10.62451     13.33282      5.87395         0.218627     -0.583024      0.115410
H     10.35389     13.33282     15.10445         0.178231     -0.692615     -0.074530
H      7.64558      5.87395     10.35389         0.441636      0.156667     -0.074305
H      7.64558     15.10445     10.62451         0.448086     -0.168868      0.355593
H     13.33282      5.87395     10.62451        -0.364993      0.150609     -0.054987
H     13.33282     15.10445     10.35389        -0.552531     -0.252477      0.142218
H     12.45634     12.45634     19.01126         0.238139      0.264598     -0.241971
H     19.01126     19.01126     19.01126        -0.257684     -0.264544     -0.227206
H     19.01126     12.45634     12.45634        -0.232209      0.269156      0.242152
H     12.45634     19.01126     12.45634         0.284768     -0.211089      0.248311
C     10.35284      5.61067      6.59456         0.299487     -0.291390     -0.882816
C     10.62556     15.36773      6.59456        -0.184953      0.659675     -0.350970
C     10.62556      5.61067     14.38384         0.270172     -0.338918      0.511774
C     10.35284     15.36773     14.38384        -0.126101      0.261532      0.334507
C      6.59456     10.35284      5.61067        -0.816227     -0.144506     -0.214388
C      6.59456     10.62556     15.36773        -0.554048      0.059208      0.350023
C     14.38384     10.62556      5.61067         0.933986     -0.020463     -0.560340
C     14.38384     10.35284     15.36773         0.272762     -0.089280      0.369674
C      5.61067      6.59456     10.35284        -0.378586     -0.444285      0.043910
C     15.36773      6.59456     10.62556         0.276060     -0.681329     -0.140790
C      5.61067     14.38384     10.62556        -0.174960      0.569140     -0.267849
C     15.36773     14.38384     10.35284         0.388578      0.816925     -0.116490
C      5.61067     10.35284      6.59456        -0.265984     -0.131519     -0.180405
C     15.36773     10.62556      6.59456         0.214817      0.195861     -0.445024
C      5.61067     10.62556     14.38384        -0.358261     -0.022576      1.228946
C     15.36773     10.35284     14.38384         0.283075     -0.043160      0.984423
C     10.35284      6.59456      5.61067         0.049977     -0.306949     -0.455134
C     10.62556      6.59456     15.36773        -0.035500     -0.875326      0.255593
C     10.62556     14.38384      5.61067        -0.402722      0.017748     -0.804765
C     10.35284     14.38384     15.36773        -0.230320      0.902554      0.231178
C      6.59456      5.61067     10.35284        -0.394622     -0.284425      0.190702
C      6.59456     15.36773     10.62556        -0.516168      0.547864      0.021271
C     14.38384      5.61067     10.62556         0.413340     -0.318383      0.068612
C     14.38384     15.36773     10.35284         0.847356      0.277896     -0.065140
C     10.40319      3.19606      7.29314         0.000470      0.605640     -0.317200
C     10.35913      4.25547      6.23373        -0.000667     -0.484698      0.423581
C      0.08601      7.29314      7.29314        -0.019667     -0.856693     -0.478952
C      0.13007      6.23373      6.23373        -0.155182      0.859252      0.140586
C      0.08601      3.19606      3.19606        -0.012423      0.369356      0.377898
C      0.13007      4.25547      4.25547         0.065547     -0.167949     -0.637391
C     10.40319      7.29314      3.19606        -0.047385     -1.098384      0.850274
C     10.35913      6.23373      4.25547         0.012751      0.337814     -0.181321
C      7.29314     10.40319      3.19606        -1.108667     -0.073423      0.360269
C      6.23373     10.35913      4.25547         0.275131      0.028583     -0.627897
C      7.29314      0.08601      7.29314        -0.944797     -0.003181     -0.408525
C      6.23373      0.13007      6.23373         0.231312      0.028921      0.120474
C      3.19606      0.08601      3.19606         0.331393     -0.003984      0.385799
C      4.25547      0.13007      4.25547        -0.279487     -0.046221     -0.163673
C      3.19606     10.40319      7.29314         0.494008     -0.047514     -1.059870
C      4.25547     10.35913      6.23373        -0.297669     -0.054000      0.122315
C      3.19606      7.29314     10.40319         0.898508     -0.504738      0.009929
C      4.25547      6.23373     10.35913        -0.136198      0.164263     -0.000709
C      7.29314      7.29314      0.08601        -0.420504     -0.275066     -0.005495
C      6.23373      6.23373      0.13007         0.241372      0.073141     -0.139344
C      3.19606      3.19606      0.08601         0.334278      0.715163     -0.009406
C      4.25547      4.25547      0.13007        -0.390070     -0.215881      0.052393
C      7.29314      3.19606     10.40319        -0.211104      0.559447      0.020891
C      6.23373      4.25547     10.35913         0.040916     -0.275819      0.017551
O     10.43466      3.58206      8.50569        -0.020188      0.122665      0.350304
O     10.54374     17.39634      8.50569         0.057877      0.048687      0.308096
O     10.54374      3.58206     12.47271         0.041898      0.200245     -0.569246
O     10.43466     17.39634     12.47271         0.031110     -0.008450     -0.454436
O      8.50569     10.43466      3.58206         0.734458     -0.072927      0.057847
O      8.50569     10.54374     17.39634         0.916532      0.028616     -0.162326
O     12.47271     10.54374      3.58206        -0.346664      0.044407      0.068114
O     12.47271     10.43466     17.39634        -0.354846     -0.027860      0.061095
O      3.58206      8.50569     10.43466        -0.045172      0.371930     -0.082005
O     17.39634      8.50569     10.54374        -0.116387      0.433001      0.034244
O      3.58206     12.47271     10.54374         0.131185     -0.723638     -0.011263
O     17.39634     12.47271     10.43466        -0.249670     -0.668120     -0.012968
O      3.58206     10.43466      8.50569         0.130721     -0.042471      0.820851
O     17.39634     10.54374      8.50569         0.037909      0.044129      0.287289
O      3.58206     10.54374     12.47271         0.071091      0.018954     -0.447600
O     17.39634     10.43466     12.47271        -0.002998      0.017486     -0.306584
O     10.43466      8.50569      3.58206        -0.067118      0.574767     -0.086152
O     10.54374      8.50569     17.39634         0.022402      0.877053     -0.195258
O     10.54374     12.47271      3.58206         0.060206     -0.362572      0.088753
O     10.43466     12.47271     17.39634        -0.062115     -0.663379     -0.205407
O      8.50569      3.58206     10.43466         0.340159      0.065081     -0.052376
O      8.50569     17.39634     10.54374         0.507273     -0.134665      0.011389
O     12.47271      3.58206     10.54374        -0.393964      0.087159      0.027969
O     12.47271     17.39634     10.43466        -0.715111     -0.101539      0.063260
O     11.90042     11.90042     19.56718        -0.249971     -0.280048      0.228599
O     19.56718     19.56718     19.56718         0.289305      0.301228      0.245437
O     19.56718     11.90042     11.90042         0.232841     -0.298510     -0.287289
O     11.90042     19.56718     11.90042        -0.282218      0.178884     -0.258638
O      9.45224      1.03696      9.45224        -0.120719      0.111412     -0.084509
O      1.03696      9.45224      9.45224         0.147239     -0.133383     -0.165920
O      1.03696      1.03696      1.03696         0.138397      0.201039     -0.010057
O      9.45224      9.45224      1.03696        -0.212972     -0.166345      0.046723
Zr     10.48920      2.52580     10.48920         0.014800     -0.244530      0.181417
Zr     10.48920     18.45260     10.48920        -0.255757      0.256893     -0.235201
Zr     10.48920     10.48920      2.52580         0.284222      0.448785     -0.217868
Zr     10.48920     10.48920     18.45260         0.042040     -0.033279      0.507739
Zr      2.52580     10.48920     10.48920        -0.545347      0.061265      0.355297
Zr     18.45260     10.48920     10.48920         0.271823     -0.162177      0.031988
Pd      9.08960     14.50214      9.20906         0.040877     -0.023429     -0.025700
Pd      8.37662     13.25345     13.75629         0.005143     -0.033377      0.051708
Pd     12.00312     14.21000      8.75067         0.042670     -0.071038     -0.028605
Pd     12.29622     12.75783     10.90589        -0.108008      0.050935     -0.071676
Pd     11.85566      7.10278     12.05787        -0.030630     -0.020089     -0.019838
Pd     11.01149     15.30681     10.99068         0.049998     -0.014931     -0.001315
Pd      9.62456     13.06828     11.41903         0.060003      0.050577     -0.001371
Pd     13.97179     12.50341      8.16968        -0.013739     -0.035862      0.009873
Pd     11.66061     11.72750      6.79398         0.012295      0.039365      0.055430
Pd      7.54521      8.50861      7.25045        -0.014883     -0.011710      0.018269
Pd      8.72252     11.96854      6.89376         0.005907      0.027330     -0.022171
Pd      9.82113      9.83059      8.05128         0.044016     -0.096603      0.009687
Pd      8.48850     14.61842      6.55131         0.015907     -0.002881      0.005044
Pd     12.15659      9.03503      6.93174        -0.015230      0.005275     -0.013317
Pd     10.04156      9.97296      5.42704        -0.038160     -0.033464      0.030911
Pd      6.93614      9.16751     12.22922        -0.013064     -0.008509     -0.046633
Pd     12.43494      6.52265      7.79419        -0.018466     -0.034991     -0.012405
Pd      5.61409     10.57973     10.05563         0.058749      0.040050      0.036645
Pd      7.65991      6.64121     12.88248        -0.005462      0.044240     -0.080777
Ir     11.29093      9.57693     12.95056         0.224156     -0.101662     -0.115508
Ir     13.10872      9.24354     11.21504        -0.080178     -0.008276      0.080365
Ir      9.16641      8.46628     13.87106        -0.021986     -0.060465     -0.048352
Ir     10.24941     10.43328     15.15358         0.029700     -0.001207      0.062481
Ir      7.09503     11.83927     11.81959        -0.042361      0.018615     -0.037122
Ir     14.50113     11.12694     10.42339        -0.017932      0.044593     -0.026919
Ir     12.35818     10.59389      9.15272        -0.104159      0.081997     -0.070579
Ir      8.92649     10.80682     12.94723        -0.102033      0.071738     -0.069097
Ir     10.06022     10.26790     10.69550        -0.021459     -0.024742     -0.082865
Ir     13.30420     11.26702     12.67795         0.066246     -0.077601      0.044787
Ir     11.10079     12.05821     13.40907        -0.002430      0.177846     -0.026590
Ir      7.99803     11.66822      9.50894        -0.143691     -0.016966      0.044150
Ir     11.36166      8.13639      9.58074        -0.177321     -0.013219     -0.007812
Ir      6.93192     13.37939      8.21723         0.032078      0.019723      0.065066
Ir      9.15745      7.24686      8.89391         0.049741      0.068044      0.044437
Ir      7.81635      9.15347      9.77548         0.010542      0.038346     -0.030321
Ir     10.40320     12.26222      8.99567         0.144102      0.137889      0.007764
Ir      9.37804      7.87661     11.36797         0.013330     -0.018671     -0.076144
Ir     13.82010      8.45725      8.92537        -0.015423     -0.041034     -0.087766
