152
# total energy = -1004.34543829 eVH     10.35389      5.87395      7.64558        -0.143009      0.178801      0.647286
H     10.62451     15.10445      7.64558        -0.255885     -0.142677      0.636527
H     10.62451      5.87395     13.33282         0.438395      0.040181     -0.923219
H     10.35389     15.10445     13.33282         0.064593     -0.185218     -0.533656
H      7.64558     10.35389      5.87395         0.385590      0.058050      0.131867
H      7.64558     10.62451     15.10445         0.798391      0.565941     -0.000473
H     13.33282     10.62451      5.87395        -0.450462      0.003512      0.234147
H     13.33282     10.35389     15.10445        -0.772331     -0.214182      0.023475
H      5.87395      7.64558     10.35389         0.119607      1.820968      0.172393
H     15.10445      7.64558     10.62451        -0.085406      0.498792      0.225062
H      5.87395     13.33282     10.62451         0.209851     -0.626233     -0.018422
H     15.10445     13.33282     10.35389         0.228160     -1.417514     -0.397473
H      5.87395     10.35389      7.64558         0.116022      0.044182      0.530696
H     15.10445     10.62451      7.64558        -0.176154      0.971323      1.414318
H      5.87395     10.62451     13.33282        -0.087577      0.548054     -1.337480
H     15.10445     10.35389     13.33282         0.118727     -0.197182     -0.767606
H     10.35389      7.64558      5.87395         0.328785      1.301626      0.163012
H     10.62451      7.64558     15.10445         0.550904      0.799375     -0.090056
H     10.62451     13.33282      5.87395        -0.600465     -0.787284      0.252786
H     10.35389     13.33282     15.10445        -0.213557     -0.525526     -0.329542
H      7.64558      5.87395     10.35389         1.166476     -0.230320     -0.078571
H      7.64558     15.10445     10.62451         0.805142     -0.202434     -0.034115
H     13.33282      5.87395     10.62451        -0.597612      0.116567      0.652959
H     13.33282     15.10445     10.35389        -0.452392     -0.022592     -0.178726
H     12.45634     12.45634     19.01126         0.272314      0.247586     -0.231883
H     19.01126     19.01126     19.01126        -0.265904     -0.269771     -0.218206
H     19.01126     12.45634     12.45634        -0.276931      0.252824      0.230953
H     12.45634     19.01126     12.45634         0.250443     -0.281065      0.232141
C     10.35284      5.61067      6.59456        -0.137870     -0.805511     -0.516626
C     10.62556     15.36773      6.59456         0.114009      0.325773     -0.208203
C     10.62556      5.61067     14.38384        -0.061079     -0.541329      0.596390
C     10.35284     15.36773     14.38384         0.000829      0.245736      0.520554
C      6.59456     10.35284      5.61067        -0.567583      0.068635     -0.390422
C      6.59456     10.62556     15.36773        -0.977206      0.231864      0.740911
C     14.38384     10.62556      5.61067         0.753849      0.038583     -0.937876
C     14.38384     10.35284     15.36773         0.909764     -0.117202      0.418072
C      5.61067      6.59456     10.35284        -0.881871     -1.044315     -0.425368
C     15.36773      6.59456     10.62556         0.697329      0.036729     -0.254249
C      5.61067     14.38384     10.62556        -0.237812      0.711529      0.016918
C     15.36773     14.38384     10.35284         0.299787      1.387669      0.010282
C      5.61067     10.35284      6.59456        -0.278067      0.021448     -0.696502
C     15.36773     10.62556      6.59456         0.431540     -0.371869     -1.049225
C      5.61067     10.62556     14.38384        -0.388829     -0.000506      1.105221
C     15.36773     10.35284     14.38384         0.425298     -0.055419      0.870388
C     10.35284      6.59456      5.61067        -0.081250     -0.990593     -0.372903
C     10.62556      6.59456     15.36773         0.062514     -0.704896      0.519113
C     10.62556     14.38384      5.61067         0.148667      1.021965     -0.413525
C     10.35284     14.38384     15.36773        -0.019100      0.978632      0.484665
C      6.59456      5.61067     10.35284        -0.595087     -1.257111      0.100329
C      6.59456     15.36773     10.62556        -0.933024      0.164974      0.111110
C     14.38384      5.61067     10.62556        -0.129585     -0.506490     -0.337769
C     14.38384     15.36773     10.35284         0.184292      0.654587     -0.070762
C     10.40319      3.19606      7.29314         0.005061      0.783851     -0.641225
C     10.35913      4.25547      6.23373         0.020219     -0.529235      0.115429
C      0.08601      7.29314      7.29314        -0.020691     -0.999582     -0.252661
C      0.13007      6.23373      6.23373        -0.056559      0.415672      0.366454
C      0.08601      3.19606      3.19606         0.051010      1.250302      0.180432
C      0.13007      4.25547      4.25547        -0.011028     -0.369529     -0.453350
C     10.40319      7.29314      3.19606        -0.009613     -0.544354      0.228447
C     10.35913      6.23373      4.25547        -0.020788      0.129791     -0.687212
C      7.29314     10.40319      3.19606        -0.369596      0.024650      0.329261
C      6.23373     10.35913      4.25547         0.220391      0.079465     -0.098820
C      7.29314      0.08601      7.29314        -1.082123     -0.081931     -0.392510
C      6.23373      0.13007      6.23373         0.638868     -0.186927      0.385450
C      3.19606      0.08601      3.19606         1.148301     -0.018547      0.313139
C      4.25547      0.13007      4.25547        -0.598478     -0.157501     -0.202570
C      3.19606     10.40319      7.29314         0.555479      0.031539     -0.266697
C      4.25547     10.35913      6.23373        -0.227033      0.089990      0.209761
C      3.19606      7.29314     10.40319         0.316254     -0.629852      0.037000
C      4.25547      6.23373     10.35913        -1.063446      0.055306      0.179422
C      7.29314      7.29314      0.08601        -0.491535     -0.480568     -0.020477
C      6.23373      6.23373      0.13007         0.506495      0.314501      0.027418
C      3.19606      3.19606      0.08601         0.593842      0.431447     -0.022303
C      4.25547      4.25547      0.13007        -0.066786     -0.764137     -0.106203
C      7.29314      3.19606     10.40319        -0.401503      0.493185      0.048352
C      6.23373      4.25547     10.35913         0.572865     -0.745029      0.189618
O     10.43466      3.58206      8.50569         0.028811      0.141635      0.566135
O     10.54374     17.39634      8.50569         0.050500     -0.031677      0.300472
O     10.54374      3.58206     12.47271        -0.000986     -0.064883     -0.183695
O     10.43466     17.39634     12.47271        -0.037951     -0.116058     -0.415559
O      8.50569     10.43466      3.58206         0.509935     -0.036845      0.113799
O      8.50569     10.54374     17.39634         0.836758     -0.074787     -0.169242
O     12.47271     10.54374      3.58206        -0.867309      0.134479      0.122047
O     12.47271     10.43466     17.39634        -0.617991      0.028812     -0.170920
O      3.58206      8.50569     10.43466         0.178940      0.716069     -0.022811
O     17.39634      8.50569     10.54374        -0.142858      0.660802      0.023423
O      3.58206     12.47271     10.54374         0.107978     -0.553967      0.055078
O     17.39634     12.47271     10.43466        -0.171856     -0.592419     -0.048882
O      3.58206     10.43466      8.50569         0.085332     -0.044627      0.405883
O     17.39634     10.54374      8.50569         0.042947      0.094765      0.363426
O      3.58206     10.54374     12.47271        -0.014565      0.032682     -0.255856
O     17.39634     10.43466     12.47271        -0.138400     -0.029920     -0.503380
O     10.43466      8.50569      3.58206        -0.031059      0.617897      0.177620
O     10.54374      8.50569     17.39634        -0.097225      0.810536     -0.200019
O     10.54374     12.47271      3.58206         0.106133     -0.961100      0.160286
O     10.43466     12.47271     17.39634         0.050601     -0.627430     -0.139479
O      8.50569      3.58206     10.43466         0.574809      0.145385     -0.049615
O      8.50569     17.39634     10.54374         0.580175     -0.157579      0.013429
O     12.47271      3.58206     10.54374        -0.723312      0.146035      0.013858
O     12.47271     17.39634     10.43466        -0.491177     -0.109825     -0.031035
O     11.90042     11.90042     19.56718        -0.327010     -0.275196      0.244179
O     19.56718     19.56718     19.56718         0.296813      0.319913      0.211776
O     19.56718     11.90042     11.90042         0.345174     -0.277270     -0.246101
O     11.90042     19.56718     11.90042        -0.276829      0.351597     -0.235869
O      9.45224      1.03696      9.45224        -0.029021      0.092972     -0.131330
O      1.03696      9.45224      9.45224         0.058198     -0.024746     -0.121125
O      1.03696      1.03696      1.03696         0.064383      0.097569      0.098643
O      9.45224      9.45224      1.03696        -0.042418     -0.031070      0.084390
Zr     10.48920      2.52580     10.48920        -0.073506     -0.225206      0.108416
Zr     10.48920     18.45260     10.48920         0.027796      0.060886      0.107980
Zr     10.48920     10.48920      2.52580        -0.320909     -0.315378     -0.380503
Zr     10.48920     10.48920     18.45260         0.165873     -0.016387      0.391850
Zr      2.52580     10.48920     10.48920        -0.154414     -0.008232     -0.067948
Zr     18.45260     10.48920     10.48920         0.150777     -0.031722      0.117740
Pd     12.84350      8.39486      9.81849        -0.006472     -0.097636      0.047018
Pd      6.57023      9.56526     10.40734        -0.084218     -0.022374     -0.107619
Pd      6.93345     11.70599     11.83482         0.065337      0.028556      0.052763
Pd     12.31204     13.50897      7.22519         0.030204     -0.087703      0.048932
Pd     12.11285      7.92406      7.17536        -0.029902     -0.027958     -0.035803
Pd      8.49878      7.32041      6.88689         0.034271     -0.025302     -0.044933
Pd     11.45513     11.49541      5.64493         0.001684     -0.036999      0.034730
Pd     14.51210      8.88885      7.83659         0.069697      0.002768     -0.090983
Pd      9.83379     11.79265      7.93521         0.032044      0.012890      0.005753
Pd      7.08369      7.14516     12.00328        -0.121715     -0.084170     -0.164856
Pd      6.42798      7.52989      8.45520        -0.072834      0.031558      0.042969
Pd      7.28111      9.25243     13.46536         0.016149     -0.018200      0.091519
Pd     11.41588      6.20239      9.22088         0.018094      0.032076      0.024527
Pd      9.98011      9.55454      6.43873         0.018590     -0.004159      0.037178
Pd      9.10100     13.97696      9.38113        -0.028335     -0.008499     -0.020260
Pd     10.91244      7.31895     11.52214         0.009734      0.025352     -0.040347
Pd     10.40771      9.08047      9.16181        -0.057787      0.025096     -0.040540
Pd      9.39739     11.53599     10.55799        -0.024012      0.001607     -0.029956
Pd      8.88431      7.08344      9.57080        -0.033648     -0.040032      0.036641
Pd      9.11777      7.35372     13.59063         0.088530      0.003120      0.038297
Pd      8.93065      9.12729     11.39464         0.056518      0.044765      0.007387
Pd     12.26140     10.58837      8.01132        -0.012026     -0.019180     -0.066429
Pd      7.19859     11.97578      9.14931         0.025698      0.004227      0.007266
Pd      8.08269      9.65752      8.25237        -0.001894      0.003591      0.105293
Pd     14.04044      6.36627      8.50576        -0.052508      0.052339      0.017999
Pd     13.30759      8.45911     12.37354        -0.065885     -0.020620     -0.008310
Pd      9.09344     11.38579     13.28734        -0.010335      0.039604     -0.066763
Pd     14.00611     12.30649      8.85002        -0.058069     -0.006500      0.005056
Pd     13.17864     11.07798     13.10595        -0.014628     -0.021606      0.063198
Pd     14.48579     10.34203     10.62123         0.062110      0.024278      0.078258
Pd     11.86891     10.66368     10.78065        -0.043457     -0.021790      0.016754
Pd     11.55423     13.11947      9.70527        -0.004807     -0.006937     -0.013798
Pd     13.64803     12.99306     11.48488         0.000749      0.039823      0.017980
Pd     11.16594     12.77035     12.35651         0.060767     -0.018283      0.008468
Pd     11.23927     11.56576     14.86129         0.052271     -0.031232     -0.032404
Pd     10.99865      9.51759     13.05789        -0.021546      0.012215     -0.068349
Pd      9.48230      9.55364     15.24652        -0.009264     -0.006769      0.047540
Pd      8.74995     13.78142     12.03944        -0.017077     -0.054802     -0.006107
