26
# total energy = -182.09043412 eVH      3.19997      7.07469      0.00000         0.000102     -0.070172     -0.000000
H      6.04237      2.16765      0.00000        -0.000102      0.070172     -0.000000
H      2.16765      3.19997      0.00000         0.070172      0.000102      0.000000
H      7.07469      6.04237     -0.00000        -0.070172     -0.000102     -0.000000
H      6.04237      7.07469     -0.00000        -0.000102     -0.070172      0.000000
H      3.19997      2.16765     -0.00000         0.000102      0.070172      0.000000
H      7.07469      3.19997     -0.00000        -0.070172      0.000102      0.000000
H      2.16765      6.04237      0.00000         0.070172     -0.000102      0.000000
C      8.51519      1.75738      0.00000        -0.241371      0.108615     -0.000000
C      0.72715      7.48496     -0.00000         0.241371     -0.108615      0.000000
C      7.48496      8.51519     -0.00000        -0.108615     -0.241371     -0.000000
C      1.75738      0.72715     -0.00000         0.108615      0.241371     -0.000000
C      0.72715      1.75738      0.00000         0.241371      0.108615      0.000000
C      8.51519      7.48496      0.00000        -0.241371     -0.108615      0.000000
C      1.75738      8.51519      0.00000         0.108615     -0.241371      0.000000
C      7.48496      0.72715      0.00000        -0.108615      0.241371     -0.000000
N      8.07531      3.06037     -0.00000         0.158550     -0.156092     -0.000000
N      1.16703      6.18197      0.00000        -0.158550      0.156092      0.000000
N      6.18197      8.07531     -0.00000         0.156092      0.158550     -0.000000
N      3.06037      1.16703     -0.00000        -0.156092     -0.158550      0.000000
N      1.16703      3.06037     -0.00000        -0.158550     -0.156092      0.000000
N      8.07531      6.18197     -0.00000         0.158550      0.156092      0.000000
N      3.06037      8.07531      0.00000        -0.156092      0.158550     -0.000000
N      6.18197      1.16703      0.00000         0.156092     -0.158550     -0.000000
Ir     -0.00000      4.62117      0.00000         0.000000      0.000000      0.000000
Ir      4.62117      0.00000      0.00000        -0.000000     -0.000000      0.000000
