21
# total energy = -137.75154275 eVC      6.16455      9.36789      7.50000        -0.005715     -0.024216      0.000000
C     12.33150      1.31081      7.50000         0.005715      0.024216      0.000000
C      7.30095     11.33341      7.50000         0.023829      0.007158     -0.000000
C     11.19510     -0.65471      7.50000        -0.023829     -0.007158      0.000000
C      5.03056     11.33480      7.50000        -0.018114      0.017057     -0.000000
C     13.46550     -0.65610      7.50000         0.018114     -0.017057      0.000000
C     11.19510      0.65471      7.50000        -0.023829      0.007158      0.000000
C      7.30095     10.02399      7.50000         0.023829     -0.007158     -0.000000
C     13.46550      0.65610      7.50000         0.018114      0.017057     -0.000000
C      5.03056     10.02260      7.50000        -0.018114     -0.017057     -0.000000
C     12.33150     -1.31081      7.50000         0.005715     -0.024216      0.000000
C      6.16455     11.98951      7.50000        -0.005715      0.024216      0.000000
O      8.39055      6.82454      7.50000        -0.035388      0.061295     -0.000000
O     10.10550      3.85416      7.50000         0.035388     -0.061295      0.000000
O      8.39055     14.53286      7.50000        -0.035388     -0.061295      0.000000
O     10.10550     -3.85416      7.50000         0.035388      0.061295     -0.000000
O      1.71495     10.67870      7.50000         0.070777      0.000000     -0.000000
O     16.78110     -0.00000      7.50000        -0.070777     -0.000000      0.000000
Ir      9.24803      5.33935      7.50000        -0.000000      0.000000      0.000000
Ir      9.24803     -5.33935      7.50000        -0.000000      0.000000      0.000000
Ir      0.00000     10.67870      7.50000         0.000000      0.000000      0.000000
