152
# total energy = -1060.61835510 eVH     10.35389      5.87395      7.64558        -0.278378      0.141724      1.051611
H     10.62451     15.10445      7.64558         0.157300     -0.093050      0.804939
H     10.62451      5.87395     13.33282        -0.305418      0.069023     -0.681694
H     10.35389     15.10445     13.33282         0.098351     -0.295511     -0.631917
H      7.64558     10.35389      5.87395         0.782413     -0.143881      0.211996
H      7.64558     10.62451     15.10445         0.223741      0.035748     -0.057667
H     13.33282     10.62451      5.87395        -0.672279     -0.054714      0.175172
H     13.33282     10.35389     15.10445        -0.312830     -0.086648     -0.050913
H      5.87395      7.64558     10.35389         0.105276      0.400534     -0.004587
H     15.10445      7.64558     10.62451        -0.100950      0.801561      0.340848
H      5.87395     13.33282     10.62451         0.022335     -0.702079      0.061845
H     15.10445     13.33282     10.35389        -0.237796     -0.424971      0.060139
H      5.87395     10.35389      7.64558         0.275169      0.074929      0.347874
H     15.10445     10.62451      7.64558        -0.167275     -0.105254      0.445111
H      5.87395     10.62451     13.33282         0.005197      0.326578     -0.708546
H     15.10445     10.35389     13.33282         0.112018     -0.350225     -0.813376
H     10.35389      7.64558      5.87395        -0.043933      0.482354      0.320050
H     10.62451      7.64558     15.10445         0.248842      0.631423     -0.113648
H     10.62451     13.33282      5.87395         0.108421     -0.651379      0.155265
H     10.35389     13.33282     15.10445         0.104586     -0.428954     -0.114489
H      7.64558      5.87395     10.35389         0.439143      0.145158      0.037763
H      7.64558     15.10445     10.62451         0.382055     -0.134659      0.243610
H     13.33282      5.87395     10.62451        -0.303442      0.107965      0.014752
H     13.33282     15.10445     10.35389        -0.598047     -0.225537      0.201357
H     12.45634     12.45634     19.01126         0.252371      0.266764     -0.229501
H     19.01126     19.01126     19.01126        -0.250608     -0.268282     -0.233555
H     19.01126     12.45634     12.45634        -0.235475      0.265914      0.246774
H     12.45634     19.01126     12.45634         0.298134     -0.217154      0.237126
C     10.35284      5.61067      6.59456         0.431880     -0.341151     -1.169583
C     10.62556     15.36773      6.59456        -0.259857      0.733134     -0.686982
C     10.62556      5.61067     14.38384         0.339671     -0.278695      0.703642
C     10.35284     15.36773     14.38384        -0.175949      0.324018      0.755343
C      6.59456     10.35284      5.61067        -0.943264     -0.042393     -0.179072
C      6.59456     10.62556     15.36773        -0.624018      0.065785      0.349998
C     14.38384     10.62556      5.61067         1.233936     -0.022557     -0.583043
C     14.38384     10.35284     15.36773         0.307618     -0.102171      0.381570
C      5.61067      6.59456     10.35284        -0.314687     -0.594122     -0.002041
C     15.36773      6.59456     10.62556         0.298021     -0.949140     -0.271382
C      5.61067     14.38384     10.62556        -0.205066      0.808914     -0.284647
C     15.36773     14.38384     10.35284         0.418241      0.866657     -0.090889
C      5.61067     10.35284      6.59456        -0.255365     -0.123217     -0.479285
C     15.36773     10.62556      6.59456         0.216103      0.087748     -0.403349
C      5.61067     10.62556     14.38384        -0.342867     -0.138015      1.229444
C     15.36773     10.35284     14.38384         0.206066      0.067106      1.123770
C     10.35284      6.59456      5.61067        -0.030699     -0.526671     -0.418164
C     10.62556      6.59456     15.36773        -0.003346     -0.760056      0.368775
C     10.62556     14.38384      5.61067        -0.425680      0.269201     -0.760704
C     10.35284     14.38384     15.36773        -0.203550      0.682393      0.393670
C      6.59456      5.61067     10.35284        -0.535126     -0.320372      0.067520
C      6.59456     15.36773     10.62556        -0.261100      0.488327      0.063755
C     14.38384      5.61067     10.62556         0.307385     -0.407412      0.094707
C     14.38384     15.36773     10.35284         0.976609      0.322367     -0.075613
C     10.40319      3.19606      7.29314         0.000581      0.776651     -0.362210
C     10.35913      4.25547      6.23373         0.028698     -0.417155      0.319919
C      0.08601      7.29314      7.29314        -0.009412     -0.604888     -0.531344
C      0.13007      6.23373      6.23373        -0.086009      0.812572      0.075530
C      0.08601      3.19606      3.19606        -0.023584      0.426165      0.300671
C      0.13007      4.25547      4.25547         0.069458     -0.199496     -0.619461
C     10.40319      7.29314      3.19606        -0.035317     -1.165277      0.896735
C     10.35913      6.23373      4.25547        -0.016961      0.378535     -0.211872
C      7.29314     10.40319      3.19606        -0.925519     -0.051842      0.322382
C      6.23373     10.35913      4.25547         0.320224      0.092453     -0.498210
C      7.29314      0.08601      7.29314        -0.845250      0.013778     -0.400326
C      6.23373      0.13007      6.23373         0.146108      0.050358      0.107549
C      3.19606      0.08601      3.19606         0.453901     -0.003920      0.232931
C      4.25547      0.13007      4.25547        -0.209943     -0.078547     -0.193539
C      3.19606     10.40319      7.29314         0.476953     -0.038337     -1.040443
C      4.25547     10.35913      6.23373        -0.172863     -0.017078      0.148534
C      3.19606      7.29314     10.40319         0.729691     -0.444046      0.014414
C      4.25547      6.23373     10.35913        -0.106683      0.160975     -0.000951
C      7.29314      7.29314      0.08601        -0.378404     -0.302948     -0.022197
C      6.23373      6.23373      0.13007         0.292147      0.126004     -0.166885
C      3.19606      3.19606      0.08601         0.323119      0.596651     -0.015151
C      4.25547      4.25547      0.13007        -0.431485     -0.282011      0.007479
C      7.29314      3.19606     10.40319        -0.253371      0.644078      0.010712
C      6.23373      4.25547     10.35913         0.029923     -0.197598      0.011292
O     10.43466      3.58206      8.50569        -0.033070      0.070140      0.279427
O     10.54374     17.39634      8.50569         0.069623     -0.045672      0.458775
O     10.54374      3.58206     12.47271         0.043936      0.170888     -0.500804
O     10.43466     17.39634     12.47271         0.057643     -0.002555     -0.498524
O      8.50569     10.43466      3.58206         0.654562     -0.082419      0.079824
O      8.50569     10.54374     17.39634         0.818369      0.073300     -0.126231
O     12.47271     10.54374      3.58206        -0.442409      0.087370      0.131322
O     12.47271     10.43466     17.39634        -0.325775     -0.008424      0.062668
O      3.58206      8.50569     10.43466         0.005972      0.434225     -0.081179
O     17.39634      8.50569     10.54374        -0.121838      0.437729      0.035029
O      3.58206     12.47271     10.54374         0.142087     -0.625625     -0.007595
O     17.39634     12.47271     10.43466        -0.259342     -0.746714     -0.003733
O      3.58206     10.43466      8.50569         0.167406     -0.040266      0.836568
O     17.39634     10.54374      8.50569         0.011617      0.036262      0.320574
O      3.58206     10.54374     12.47271         0.037581      0.009583     -0.360345
O     17.39634     10.43466     12.47271        -0.036470      0.005848     -0.347877
O     10.43466      8.50569      3.58206        -0.067334      0.564099     -0.134937
O     10.54374      8.50569     17.39634         0.038269      0.665516     -0.105212
O     10.54374     12.47271      3.58206         0.075577     -0.437104      0.097588
O     10.43466     12.47271     17.39634        -0.055672     -0.775135     -0.273867
O      8.50569      3.58206     10.43466         0.347147      0.023859     -0.064480
O      8.50569     17.39634     10.54374         0.541868     -0.135564      0.047611
O     12.47271      3.58206     10.54374        -0.471417      0.123100      0.021130
O     12.47271     17.39634     10.43466        -0.624735     -0.092662      0.052017
O     11.90042     11.90042     19.56718        -0.260339     -0.279644      0.222299
O     19.56718     19.56718     19.56718         0.291522      0.305306      0.275003
O     19.56718     11.90042     11.90042         0.255133     -0.306276     -0.279381
O     11.90042     19.56718     11.90042        -0.308504      0.186122     -0.225422
O      9.45224      1.03696      9.45224        -0.127897      0.136801     -0.055312
O      1.03696      9.45224      9.45224         0.150092     -0.152415     -0.076374
O      1.03696      1.03696      1.03696         0.116003      0.129304      0.025651
O      9.45224      9.45224      1.03696        -0.135298     -0.170123      0.084739
Zr     10.48920      2.52580     10.48920         0.034970     -0.201839      0.200443
Zr     10.48920     18.45260     10.48920        -0.198962      0.257334     -0.357529
Zr     10.48920     10.48920      2.52580         0.169047      0.484370     -0.174134
Zr     10.48920     10.48920     18.45260         0.008088     -0.188852      0.340102
Zr      2.52580     10.48920     10.48920        -0.391813      0.092873      0.325907
Zr     18.45260     10.48920     10.48920         0.238780     -0.152749      0.011418
Pd      9.25443     14.41708      9.13427        -0.032666      0.154007      0.034203
Pd      8.43885     13.57363     13.32020        -0.007005     -0.088439      0.099554
Pd     11.95628     14.44432      8.84619        -0.005866     -0.050148      0.202806
Pd     12.40448     12.77903     10.83156        -0.060377      0.071683      0.106582
Pd     12.03742      7.11756     12.46417         0.017235      0.110407     -0.140556
Pd     10.99833     15.16680     11.31555         0.051396     -0.031918     -0.115129
Pd      9.73950     12.87093     11.11294         0.016971      0.036005      0.245924
Pd     13.57954     12.40970      8.20360         0.139063      0.035812     -0.119595
Pd     11.67592     11.72761      6.38685        -0.189298     -0.143300      0.137100
Pd      7.73759      8.20378      7.47397         0.017720      0.100705     -0.115646
Pd      8.74043     11.84285      6.86496         0.155616     -0.044262     -0.056003
Pd      9.94679      9.67827      8.16167        -0.082339     -0.084476      0.066619
Pd      8.46659     14.50520      6.56674         0.109757      0.065024      0.045732
Pd     12.27128      9.15968      7.07021         0.018858     -0.009162     -0.156145
Pd     10.05409      9.75906      5.51574        -0.093224      0.039609      0.040517
Pd      6.87349      9.30918     12.23353         0.055142      0.065641      0.124601
Pd     12.27576      6.60527      7.89210        -0.115888     -0.064868     -0.003268
Pd      5.77737     10.49799      9.87740        -0.040904      0.024212      0.029090
Pd      7.56043      6.89727     13.17172         0.008840     -0.032611     -0.041239
Ir     11.45726      9.64207     13.07214        -0.286077      0.009456     -0.069233
Ir     13.32391      9.19741     11.43493        -0.033009     -0.081471      0.014889
Ir      9.16291      8.72768     13.96064         0.127050      0.041784      0.162992
Ir     10.32073     10.65100     15.16326         0.031166      0.096820     -0.140922
Ir      7.16836     11.92301     11.60128        -0.144663      0.027983     -0.126042
Ir     14.57452     11.12241     10.40968        -0.043705     -0.070747      0.270597
Ir     12.33766     10.47454      9.41958         0.265785     -0.052742     -0.124298
Ir      8.90080     10.99348     12.95889         0.171829     -0.186658      0.162098
Ir     10.06256     10.08427     10.86238         0.056277      0.027581      0.099994
Ir     13.40815     11.36906     12.70414         0.003721      0.079338     -0.152103
Ir     11.14799     12.16237     13.24282         0.023172      0.021938     -0.077929
Ir      8.23222     11.38325      9.38882        -0.102487      0.121362     -0.065567
Ir     11.46938      8.04543      9.94834         0.057040     -0.060415     -0.189352
Ir      7.07694     13.25759      8.42068        -0.015722     -0.158593     -0.080831
Ir      9.37957      7.05017      9.17844        -0.106789     -0.006612     -0.087336
Ir      7.92658      8.92841      9.95122         0.129611      0.044692     -0.050798
Ir     10.65557     12.16681      8.71371        -0.068089     -0.025327      0.078306
Ir      9.47977      7.76428     11.65170        -0.015091     -0.035358     -0.027310
Ir     13.84002      8.37226      9.06334        -0.067346      0.250929     -0.046800
