21
# total energy = -132.41574895 eVH      5.95168      5.93953      7.50000         0.010784      0.008911      0.000000
H      2.20253      8.14405      7.50000        -0.013255      0.005355      0.000000
H      2.16794      3.79493      7.50000         0.002120     -0.013733      0.000000
H      4.37048      0.01997      7.50000        -0.010784     -0.008911     -0.000000
H      8.11963     -2.18455      7.50000         0.013255     -0.005355     -0.000000
H      8.15422      2.16457      7.50000        -0.002120      0.013733     -0.000000
C      8.26430     -0.01018      7.50000         0.003810     -0.009718      0.000000
C      6.19886      1.20263      7.50000         0.004437      0.007771      0.000000
C      6.18117     -1.19250      7.50000        -0.006820     -0.000568      0.000000
C      2.05785      5.96968      7.50000        -0.003810      0.009718      0.000000
C      4.12329      4.75687      7.50000        -0.004437     -0.007771      0.000000
C      4.14098      7.15200      7.50000         0.006820      0.000568     -0.000000
C      7.58204     -1.23490      7.50000         0.035077     -0.022479      0.000000
C      7.60062      1.22414      7.50000         0.001049      0.043678      0.000000
C      5.46171      0.01066      7.50000        -0.038413     -0.017312      0.000000
C      2.74012      7.19440      7.50000        -0.035077      0.022479      0.000000
C      2.72154      4.73536      7.50000        -0.001049     -0.043678      0.000000
C      4.86044      5.94884      7.50000         0.038413      0.017312     -0.000000
Pd      5.16108     -2.97975      7.50000         0.000000      0.000000      0.000000
Pd     -0.00000      5.95950      7.50000         0.000000      0.000000      0.000000
Pd      5.16108      2.97975      7.50000         0.000000      0.000000      0.000000
