38
# total energy = -255.12946262 eVH      1.22453      6.94204      7.50000         0.002372      0.001197     -0.000000
H      8.09859      6.77213      7.50000        -0.005255     -0.012248      0.000000
H      4.45917     13.86896      7.50000         0.015406     -0.007154     -0.000000
H     12.67528      2.18108      7.50000        -0.002372     -0.001197     -0.000000
H      5.80122      2.35099      7.50000         0.005255      0.012248     -0.000000
H      9.44064     -4.74584      7.50000        -0.015406      0.007154     -0.000000
H      5.81564     -2.34382      7.50000        -0.000499     -0.005399      0.000000
H      9.44162      4.72960      7.50000        -0.011257     -0.003866      0.000000
H     12.66433     -2.17393      7.50000        -0.002756      0.002340     -0.000000
H      8.08417     11.46694      7.50000         0.000499      0.005399     -0.000000
H      4.45819      4.39352      7.50000         0.011257      0.003866     -0.000000
H      1.23549     11.29705      7.50000         0.002756     -0.002340     -0.000000
C      7.73835     -3.37011      7.50000         0.001892      0.006047     -0.000000
C     12.48428      0.00414      7.50000        -0.032995     -0.012444     -0.000000
C      7.73111      3.36470      7.50000        -0.009137     -0.006234      0.000000
C      6.16146     12.49323      7.50000        -0.001892     -0.006047     -0.000000
C      1.41553      9.11898      7.50000         0.032995      0.012444     -0.000000
C      6.16870      5.75842      7.50000         0.009137      0.006234      0.000000
C     13.20743     -1.22690      7.50000        -0.002830      0.004114      0.000000
C      8.35154      4.64473      7.50000        -0.002621     -0.016390      0.000000
C      6.31685     -3.31460      7.50000        -0.006527      0.000739     -0.000000
C      0.69238     10.35002      7.50000         0.002830     -0.004114     -0.000000
C      5.54827      4.47839      7.50000         0.002621      0.016390     -0.000000
C      7.58296     12.43772      7.50000         0.006527     -0.000739      0.000000
C      5.54880     13.77705      7.50000        -0.008444     -0.023817      0.000000
C      7.59062      5.80455      7.50000         0.003323      0.008531     -0.000000
C      0.68666      7.89199      7.50000         0.001524      0.005211      0.000000
C      8.35101     -4.65393      7.50000         0.008444      0.023817      0.000000
C      6.30919      3.31857      7.50000        -0.003323     -0.008531     -0.000000
C     13.21315      1.23113      7.50000        -0.001524     -0.005211     -0.000000
N      5.84576      9.12933      7.50000        -0.009792      0.000332      0.000000
N      8.05405     -0.00621      7.50000         0.009792     -0.000332      0.000000
Ir      8.77920      1.64966      7.50000        -0.029603     -0.013810      0.000000
Ir      8.78870     -1.65786      7.50000        -0.023280      0.001253     -0.000000
Ir     10.55279      0.00171      7.50000        -0.022049     -0.005933      0.000000
Ir      5.12061      7.47347      7.50000         0.029603      0.013810      0.000000
Ir      5.11111     10.78098      7.50000         0.023280     -0.001253      0.000000
Ir      3.34702      9.12141      7.50000         0.022049      0.005933      0.000000
