152
# total energy = -1004.20844097 eVH     10.35389      5.87395      7.64558        -0.230850      0.249923      0.611149
H     10.62451     15.10445      7.64558        -0.247590     -0.141003      0.694955
H     10.62451      5.87395     13.33282         0.466994      0.040062     -0.950595
H     10.35389     15.10445     13.33282         0.068399     -0.195726     -0.532928
H      7.64558     10.35389      5.87395         0.430971      0.066353      0.111652
H      7.64558     10.62451     15.10445         0.799852      0.605516     -0.026248
H     13.33282     10.62451      5.87395        -0.439586     -0.068446      0.304960
H     13.33282     10.35389     15.10445        -0.688468     -0.161010     -0.032183
H      5.87395      7.64558     10.35389         0.094067      1.796816      0.163980
H     15.10445      7.64558     10.62451        -0.099109      0.515943      0.121180
H      5.87395     13.33282     10.62451         0.208386     -0.747543      0.054790
H     15.10445     13.33282     10.35389         0.230826     -1.450512     -0.338759
H      5.87395     10.35389      7.64558         0.082560      0.073458      0.600051
H     15.10445     10.62451      7.64558        -0.207092      0.796123      1.325606
H      5.87395     10.62451     13.33282        -0.058144      0.459103     -1.321708
H     15.10445     10.35389     13.33282         0.134921     -0.137032     -0.759848
H     10.35389      7.64558      5.87395         0.232326      1.410878      0.178354
H     10.62451      7.64558     15.10445         0.551260      0.834962     -0.079998
H     10.62451     13.33282      5.87395        -0.564931     -0.808618      0.177407
H     10.35389     13.33282     15.10445        -0.126064     -0.521667     -0.288952
H      7.64558      5.87395     10.35389         1.108571     -0.298061     -0.152441
H      7.64558     15.10445     10.62451         0.716209     -0.209971     -0.029083
H     13.33282      5.87395     10.62451        -0.619018      0.116443      0.607221
H     13.33282     15.10445     10.35389        -0.369743     -0.039354     -0.125197
H     12.45634     12.45634     19.01126         0.272696      0.243998     -0.234352
H     19.01126     19.01126     19.01126        -0.267465     -0.273682     -0.212615
H     19.01126     12.45634     12.45634        -0.272143      0.254458      0.233489
H     12.45634     19.01126     12.45634         0.255813     -0.281604      0.228171
C     10.35284      5.61067      6.59456        -0.140735     -0.841795     -0.605884
C     10.62556     15.36773      6.59456         0.085933      0.362018     -0.273983
C     10.62556      5.61067     14.38384        -0.084558     -0.601633      0.633865
C     10.35284     15.36773     14.38384        -0.017241      0.239496      0.540545
C      6.59456     10.35284      5.61067        -0.699988      0.091522     -0.497402
C      6.59456     10.62556     15.36773        -0.996372      0.217378      0.744145
C     14.38384     10.62556      5.61067         0.896432      0.021226     -0.951476
C     14.38384     10.35284     15.36773         0.955217     -0.085354      0.491223
C      5.61067      6.59456     10.35284        -0.823217     -0.953689     -0.481180
C     15.36773      6.59456     10.62556         0.719369     -0.004419     -0.217711
C      5.61067     14.38384     10.62556        -0.206487      0.887165     -0.022296
C     15.36773     14.38384     10.35284         0.303447      1.475809     -0.061025
C      5.61067     10.35284      6.59456        -0.295178     -0.000891     -0.751813
C     15.36773     10.62556      6.59456         0.387486     -0.373217     -0.883352
C      5.61067     10.62556     14.38384        -0.369074     -0.008513      1.084428
C     15.36773     10.35284     14.38384         0.314232     -0.036596      0.892145
C     10.35284      6.59456      5.61067        -0.000870     -1.048749     -0.327359
C     10.62556      6.59456     15.36773         0.032913     -0.737765      0.568066
C     10.62556     14.38384      5.61067         0.104846      0.946544     -0.430014
C     10.35284     14.38384     15.36773        -0.026545      0.757373      0.380868
C      6.59456      5.61067     10.35284        -0.709947     -1.191271      0.160572
C      6.59456     15.36773     10.62556        -0.783257      0.133855      0.087423
C     14.38384      5.61067     10.62556        -0.047225     -0.492338     -0.405361
C     14.38384     15.36773     10.35284         0.079551      0.634272     -0.075953
C     10.40319      3.19606      7.29314         0.007065      0.629308     -0.842465
C     10.35913      4.25547      6.23373         0.006900     -0.520049      0.120484
C      0.08601      7.29314      7.29314        -0.027683     -1.043057     -0.261715
C      0.13007      6.23373      6.23373        -0.049835      0.394946      0.439408
C      0.08601      3.19606      3.19606         0.038849      1.140726      0.218212
C      0.13007      4.25547      4.25547         0.000692     -0.422400     -0.421619
C     10.40319      7.29314      3.19606        -0.012787     -0.629402      0.215615
C     10.35913      6.23373      4.25547        -0.028940      0.126937     -0.715217
C      7.29314     10.40319      3.19606        -0.433263      0.017106      0.241941
C      6.23373     10.35913      4.25547         0.203992      0.059890     -0.095853
C      7.29314      0.08601      7.29314        -1.227046     -0.079944     -0.379839
C      6.23373      0.13007      6.23373         0.662832     -0.198173      0.371049
C      3.19606      0.08601      3.19606         1.228761     -0.015129      0.281828
C      4.25547      0.13007      4.25547        -0.587728     -0.149728     -0.232196
C      3.19606     10.40319      7.29314         0.551808      0.031638     -0.259120
C      4.25547     10.35913      6.23373        -0.212916      0.069133      0.184906
C      3.19606      7.29314     10.40319         0.288582     -0.554299      0.051769
C      4.25547      6.23373     10.35913        -0.980342     -0.000802      0.161450
C      7.29314      7.29314      0.08601        -0.473891     -0.429809     -0.021142
C      6.23373      6.23373      0.13007         0.445519      0.304990      0.064558
C      3.19606      3.19606      0.08601         0.642241      0.453887     -0.021991
C      4.25547      4.25547      0.13007        -0.144827     -0.774921     -0.113533
C      7.29314      3.19606     10.40319        -0.379380      0.450350      0.054135
C      6.23373      4.25547     10.35913         0.603017     -0.696421      0.198599
O     10.43466      3.58206      8.50569         0.060588      0.219466      0.719923
O     10.54374     17.39634      8.50569         0.052631     -0.026994      0.303844
O     10.54374      3.58206     12.47271         0.005328     -0.037965     -0.239270
O     10.43466     17.39634     12.47271        -0.033687     -0.095750     -0.381006
O      8.50569     10.43466      3.58206         0.577669     -0.047785      0.148375
O      8.50569     10.54374     17.39634         0.876615     -0.082938     -0.150828
O     12.47271     10.54374      3.58206        -0.897008      0.144076      0.131542
O     12.47271     10.43466     17.39634        -0.610667      0.040072     -0.181422
O      3.58206      8.50569     10.43466         0.178958      0.652847     -0.036508
O     17.39634      8.50569     10.54374        -0.139191      0.622343      0.020816
O      3.58206     12.47271     10.54374         0.104681     -0.551999      0.049522
O     17.39634     12.47271     10.43466        -0.178208     -0.559652     -0.057511
O      3.58206     10.43466      8.50569         0.087894     -0.041800      0.386087
O     17.39634     10.54374      8.50569         0.059604      0.105064      0.324521
O      3.58206     10.54374     12.47271        -0.033370      0.027607     -0.229142
O     17.39634     10.43466     12.47271        -0.110741     -0.028471     -0.412927
O     10.43466      8.50569      3.58206        -0.044857      0.659249      0.180994
O     10.54374      8.50569     17.39634        -0.089962      0.809857     -0.153510
O     10.54374     12.47271      3.58206         0.121411     -0.929903      0.172872
O     10.43466     12.47271     17.39634         0.015032     -0.473895     -0.052772
O      8.50569      3.58206     10.43466         0.564556      0.150808     -0.051303
O      8.50569     17.39634     10.54374         0.593107     -0.165285      0.015750
O     12.47271      3.58206     10.54374        -0.740755      0.123750      0.016313
O     12.47271     17.39634     10.43466        -0.502455     -0.126972     -0.031704
O     11.90042     11.90042     19.56718        -0.323459     -0.265652      0.244659
O     19.56718     19.56718     19.56718         0.297218      0.324753      0.205496
O     19.56718     11.90042     11.90042         0.344112     -0.283073     -0.250851
O     11.90042     19.56718     11.90042        -0.281022      0.350678     -0.222440
O      9.45224      1.03696      9.45224        -0.036678      0.105590     -0.125563
O      1.03696      9.45224      9.45224         0.068008     -0.027907     -0.111334
O      1.03696      1.03696      1.03696         0.064088      0.092655      0.102298
O      9.45224      9.45224      1.03696        -0.035549     -0.026187      0.094375
Zr     10.48920      2.52580     10.48920        -0.094064     -0.245615      0.186226
Zr     10.48920     18.45260     10.48920         0.018566      0.056886      0.084114
Zr     10.48920     10.48920      2.52580        -0.316948     -0.224930     -0.402659
Zr     10.48920     10.48920     18.45260         0.185321      0.005001      0.350937
Zr      2.52580     10.48920     10.48920        -0.136353     -0.044604     -0.066518
Zr     18.45260     10.48920     10.48920         0.102653     -0.049472      0.137146
Pd     12.66897      8.22598      9.69709        -0.031550      0.066233     -0.001558
Pd      6.73760      9.63650     10.49519         0.044597     -0.022199     -0.031764
Pd      6.94098     11.79776     11.94158         0.007067     -0.004806     -0.012667
Pd     12.23960     13.46783      7.28991         0.021262      0.008005      0.021133
Pd     12.09645      7.89310      7.04793        -0.015643      0.021134      0.073712
Pd      8.53259      7.35870      6.95660        -0.035380      0.010109      0.006844
Pd     11.54308     11.44943      5.67001        -0.026976      0.008644     -0.014773
Pd     14.48353      8.83571      7.80190        -0.008891      0.001734      0.009728
Pd      9.90145     11.77117      7.84933        -0.031764     -0.003138     -0.015228
Pd      7.08145      7.18447     11.97880        -0.039712      0.001229     -0.024768
Pd      6.45013      7.73523      8.49584         0.017521     -0.016576      0.025176
Pd      7.33901      9.26994     13.47820         0.024891     -0.012801     -0.035153
Pd     11.35164      6.03014      9.22371         0.005056      0.004728      0.009274
Pd      9.90013      9.58108      6.28482        -0.002054     -0.000521      0.018437
Pd      9.13147     13.91170      9.25927         0.000556      0.047145      0.042595
Pd     10.89402      7.18520     11.53419         0.030025     -0.030379     -0.036799
Pd     10.32482      9.04730      8.91765         0.144210      0.037286      0.039289
Pd      9.26845     11.48995     10.44205        -0.061689      0.008132      0.018589
Pd      8.86926      7.11181      9.64855        -0.024238     -0.093291     -0.006376
Pd      9.05188      7.27019     13.67250         0.041480     -0.006162      0.031890
Pd      9.09649      9.08239     11.45917        -0.036819      0.106400      0.011903
Pd     12.34136     10.58558      8.09494        -0.007293     -0.068757      0.010550
Pd      7.00647     12.09252      9.21757         0.023777     -0.041786      0.021482
Pd      8.04730      9.86237      8.20868        -0.113901     -0.008840      0.019916
Pd     13.98254      6.29544      8.46733         0.034203      0.003468     -0.001786
Pd     13.31101      8.25390     12.21607         0.001648      0.034249      0.032734
Pd      9.19130     11.30863     13.21959        -0.012190     -0.027088     -0.032919
Pd     14.09198     12.41587      8.81423        -0.006478      0.029469     -0.034580
Pd     13.16643     10.83371     12.93642        -0.024262     -0.000100      0.062863
Pd     14.24971     10.25104     10.39082         0.015751     -0.003022     -0.005757
Pd     11.60373     10.38077     10.86899         0.031069     -0.039414     -0.043728
Pd     11.54609     12.91671      9.76218         0.005605      0.043456      0.007534
Pd     13.69718     12.86595     11.48041         0.022454      0.038881      0.010655
Pd     11.25310     12.65532     12.35320        -0.020642      0.033914     -0.004967
Pd     11.36169     11.47082     14.80326        -0.029397      0.009420     -0.007076
Pd     11.06626      9.22755     13.29104         0.043592      0.055779     -0.042584
Pd      9.46892      9.59447     15.33086        -0.017480     -0.008557     -0.003865
Pd      8.90205     13.73894     11.94859        -0.005472     -0.020843     -0.002296
