152
# total energy = -1060.07819306 eVH     10.35389      5.87395      7.64558        -0.274676      0.033106      1.129840
H     10.62451     15.10445      7.64558         0.080880     -0.088965      0.921520
H     10.62451      5.87395     13.33282        -0.255119      0.081014     -0.787507
H     10.35389     15.10445     13.33282         0.102178     -0.300233     -0.876023
H      7.64558     10.35389      5.87395         0.931842     -0.134919      0.187300
H      7.64558     10.62451     15.10445         0.326945     -0.035665     -0.074184
H     13.33282     10.62451      5.87395        -0.863409      0.201236      0.204429
H     13.33282     10.35389     15.10445        -0.278720     -0.013647     -0.067315
H      5.87395      7.64558     10.35389         0.087560      0.417031     -0.008620
H     15.10445      7.64558     10.62451        -0.003430      0.496092     -0.028524
H      5.87395     13.33282     10.62451        -0.015415     -0.961286      0.078605
H     15.10445     13.33282     10.35389        -0.087988     -0.321663      0.004524
H      5.87395     10.35389      7.64558         0.281165      0.112344      0.407706
H     15.10445     10.62451      7.64558        -0.123564     -0.171151      0.662835
H      5.87395     10.62451     13.33282        -0.086412      0.462406     -0.622311
H     15.10445     10.35389     13.33282         0.247349     -0.621489     -0.833656
H     10.35389      7.64558      5.87395        -0.040367      0.484200      0.334242
H     10.62451      7.64558     15.10445         0.248117      0.766325     -0.034611
H     10.62451     13.33282      5.87395         0.124963     -0.573633      0.209622
H     10.35389     13.33282     15.10445         0.041091     -0.287540     -0.141088
H      7.64558      5.87395     10.35389         0.345746      0.099268      0.028879
H      7.64558     15.10445     10.62451         0.379402     -0.117940      0.165809
H     13.33282      5.87395     10.62451        -0.316671      0.130275     -0.031737
H     13.33282     15.10445     10.35389        -0.652939     -0.131743      0.149312
H     12.45634     12.45634     19.01126         0.255774      0.271270     -0.228440
H     19.01126     19.01126     19.01126        -0.246736     -0.267768     -0.245261
H     19.01126     12.45634     12.45634        -0.250873      0.269724      0.235367
H     12.45634     19.01126     12.45634         0.290546     -0.235516      0.234675
C     10.35284      5.61067      6.59456         0.398495     -0.417053     -1.433734
C     10.62556     15.36773      6.59456        -0.159399      0.586765     -0.643754
C     10.62556      5.61067     14.38384         0.382975     -0.337183      0.836327
C     10.35284     15.36773     14.38384        -0.226268      0.231559      1.088565
C      6.59456     10.35284      5.61067        -1.375685      0.021910     -0.232197
C      6.59456     10.62556     15.36773        -0.641450      0.062744      0.368142
C     14.38384     10.62556      5.61067         1.312655     -0.170413     -0.631509
C     14.38384     10.35284     15.36773         0.359261     -0.125692      0.360792
C      5.61067      6.59456     10.35284        -0.287323     -0.644927     -0.020305
C     15.36773      6.59456     10.62556         0.421457     -0.963389      0.031411
C      5.61067     14.38384     10.62556        -0.135466      1.164954     -0.179419
C     15.36773     14.38384     10.35284         0.463473      0.653904     -0.027153
C      5.61067     10.35284      6.59456        -0.368181     -0.099901     -0.721035
C     15.36773     10.62556      6.59456         0.406298      0.118531     -0.725079
C      5.61067     10.62556     14.38384        -0.378824     -0.171256      1.231409
C     15.36773     10.35284     14.38384         0.264442      0.191773      1.461957
C     10.35284      6.59456      5.61067        -0.054296     -0.719010     -0.599487
C     10.62556      6.59456     15.36773        -0.103412     -0.877008      0.346381
C     10.62556     14.38384      5.61067        -0.472204      0.411857     -0.708249
C     10.35284     14.38384     15.36773        -0.156436      0.600281      0.420919
C      6.59456      5.61067     10.35284        -0.512057     -0.334511      0.027135
C      6.59456     15.36773     10.62556        -0.376684      0.449638      0.057281
C     14.38384      5.61067     10.62556         0.449413     -0.374010      0.001691
C     14.38384     15.36773     10.35284         1.118583      0.494393     -0.074078
C     10.40319      3.19606      7.29314        -0.001049      0.685264     -0.340363
C     10.35913      4.25547      6.23373         0.010453     -0.427235      0.290362
C      0.08601      7.29314      7.29314        -0.013390     -0.369013     -0.503363
C      0.13007      6.23373      6.23373        -0.070372      0.845038      0.065143
C      0.08601      3.19606      3.19606        -0.002694      0.681258      0.266504
C      0.13007      4.25547      4.25547         0.031369     -0.270712     -0.540806
C     10.40319      7.29314      3.19606        -0.066518     -1.150657      0.581615
C     10.35913      6.23373      4.25547        -0.039479      0.365987     -0.199551
C      7.29314     10.40319      3.19606        -1.083573     -0.056719      0.194461
C      6.23373     10.35913      4.25547         0.366944      0.086112     -0.542258
C      7.29314      0.08601      7.29314        -0.436108      0.032685     -0.519653
C      6.23373      0.13007      6.23373         0.181534      0.127451      0.126409
C      3.19606      0.08601      3.19606         0.696587      0.024148      0.164497
C      4.25547      0.13007      4.25547        -0.173184     -0.052774     -0.358944
C      3.19606     10.40319      7.29314         0.393000     -0.026124     -0.889072
C      4.25547     10.35913      6.23373        -0.154656     -0.077173      0.099916
C      3.19606      7.29314     10.40319         0.606429     -0.394966      0.002662
C      4.25547      6.23373     10.35913        -0.113597      0.182666      0.000593
C      7.29314      7.29314      0.08601        -0.410020     -0.315266     -0.014605
C      6.23373      6.23373      0.13007         0.182372      0.187922     -0.065805
C      3.19606      3.19606      0.08601         0.289274      0.479447     -0.023609
C      4.25547      4.25547      0.13007        -0.404061     -0.231097     -0.032754
C      7.29314      3.19606     10.40319        -0.279083      0.593155     -0.011020
C      6.23373      4.25547     10.35913         0.004798     -0.114343      0.020950
O     10.43466      3.58206      8.50569        -0.028636      0.092596      0.319906
O     10.54374     17.39634      8.50569         0.062372     -0.129033      0.590441
O     10.54374      3.58206     12.47271         0.027643      0.106200     -0.391737
O     10.43466     17.39634     12.47271         0.090111     -0.047808     -0.387279
O      8.50569     10.43466      3.58206         0.709970     -0.061862      0.012314
O      8.50569     10.54374     17.39634         0.485030      0.058288     -0.079754
O     12.47271     10.54374      3.58206        -0.650693      0.116875      0.205152
O     12.47271     10.43466     17.39634        -0.286054     -0.004495      0.021392
O      3.58206      8.50569     10.43466         0.040344      0.460494     -0.068645
O     17.39634      8.50569     10.54374        -0.060096      0.453269      0.056812
O      3.58206     12.47271     10.54374         0.114611     -0.582879      0.001970
O     17.39634     12.47271     10.43466        -0.173726     -0.743497     -0.056242
O      3.58206     10.43466      8.50569         0.211240     -0.061615      0.783141
O     17.39634     10.54374      8.50569        -0.097102      0.075397      0.553357
O      3.58206     10.54374     12.47271        -0.001754     -0.001751     -0.267618
O     17.39634     10.43466     12.47271         0.037507     -0.012324     -0.226483
O     10.43466      8.50569      3.58206        -0.104793      0.568591     -0.114850
O     10.54374      8.50569     17.39634         0.068331      0.505722     -0.088964
O     10.54374     12.47271      3.58206         0.104809     -0.625244      0.133415
O     10.43466     12.47271     17.39634        -0.059106     -0.655817     -0.256033
O      8.50569      3.58206     10.43466         0.394949      0.026323     -0.036022
O      8.50569     17.39634     10.54374         0.629391     -0.154644      0.048022
O     12.47271      3.58206     10.54374        -0.507671      0.126760      0.035744
O     12.47271     17.39634     10.43466        -0.622522     -0.133116      0.039882
O     11.90042     11.90042     19.56718        -0.273740     -0.306682      0.233818
O     19.56718     19.56718     19.56718         0.303474      0.318052      0.299861
O     19.56718     11.90042     11.90042         0.284705     -0.324335     -0.231657
O     11.90042     19.56718     11.90042        -0.316669      0.229535     -0.202405
O      9.45224      1.03696      9.45224        -0.085730      0.087718     -0.065375
O      1.03696      9.45224      9.45224         0.104278     -0.118675     -0.045561
O      1.03696      1.03696      1.03696         0.083239      0.056511      0.097966
O      9.45224      9.45224      1.03696        -0.061006     -0.131435      0.131693
Zr     10.48920      2.52580     10.48920         0.031546     -0.091499      0.078570
Zr     10.48920     18.45260     10.48920        -0.171011      0.260510     -0.346795
Zr     10.48920     10.48920      2.52580         0.120620      0.353844     -0.348737
Zr     10.48920     10.48920     18.45260        -0.083322     -0.204973      0.184767
Zr      2.52580     10.48920     10.48920        -0.255722      0.125816      0.228976
Zr     18.45260     10.48920     10.48920         0.226739     -0.115975     -0.005970
Pd      9.39321     14.26204      9.35672         0.005512      0.041632     -0.046627
Pd      8.62200     13.70221     12.99073        -0.009884     -0.019594      0.014880
Pd     12.03336     14.41275      8.74713         0.015145     -0.014936      0.001441
Pd     12.76387     12.81412     10.63477        -0.036049      0.025558      0.031731
Pd     12.15257      7.10990     12.61365        -0.010624      0.007295      0.001926
Pd     11.21102     14.83643     11.50323        -0.023625      0.031372     -0.031556
Pd     10.07823     12.49876     11.11200        -0.053276      0.054266     -0.040013
Pd     13.48292     12.13756      7.98146         0.005475      0.007802      0.008075
Pd     11.48119     11.55766      6.11129         0.004189      0.005657      0.002191
Pd      7.85607      8.55312      7.54531         0.009420     -0.040059     -0.012606
Pd      8.73729     11.73139      6.88546        -0.007363      0.007737     -0.018727
Pd     10.30890      9.46129      8.14219        -0.000949      0.006167      0.008982
Pd      8.50564     14.43549      6.84293        -0.007705      0.012911     -0.030903
Pd     12.36991      9.03597      6.58648        -0.004645      0.008879      0.011930
Pd      9.74385      9.60979      5.55344         0.001726      0.007847      0.001612
Pd      6.87550      9.46259     12.19003        -0.003809      0.009769     -0.003476
Pd     12.21027      6.68976      7.87120         0.000236      0.015692      0.020402
Pd      5.95197     10.46528      9.73151        -0.011487     -0.014710     -0.003554
Pd      7.57510      7.13263     13.25517         0.007442      0.030563      0.052076
Ir     11.79782      9.69539     13.06087        -0.025617     -0.010257      0.001931
Ir     13.57792      8.99578     11.44494        -0.018231      0.010478      0.013638
Ir      9.42136      8.82857     13.88247        -0.020333     -0.026217      0.087035
Ir     10.56033     10.90349     14.88949        -0.008090     -0.023512      0.082221
Ir      7.29303     12.03098     11.36914         0.008304     -0.029254      0.008746
Ir     14.68883     10.84251     10.10310        -0.005281      0.038760      0.038540
Ir     12.20136     10.48298      9.65350        -0.016567      0.006812     -0.015655
Ir      8.79284     11.04487     13.01991        -0.031111      0.036323     -0.066317
Ir     10.14604      9.85762     11.21666        -0.008323      0.039548     -0.056150
Ir     13.75770     11.36398     12.42109        -0.038860      0.004211      0.060022
Ir     11.63430     12.28408     13.11558        -0.076785     -0.002039     -0.008297
Ir      8.53271     11.07165      9.38301        -0.025164      0.012110     -0.020212
Ir     11.59964      7.97230     10.06876         0.012451      0.022315      0.010334
Ir      7.24086     12.99805      8.69934         0.010005      0.023077      0.011257
Ir      9.51766      7.00053      9.10781         0.010292     -0.010821      0.034710
Ir      8.07114      8.74463     10.10294        -0.010106      0.020462     -0.009929
Ir     10.76013     12.09171      8.53715        -0.001459      0.006883     -0.029432
Ir      9.57356      7.44612     11.66236        -0.020149      0.040472      0.048159
Ir     13.70301      8.69793      8.80552         0.002164      0.021814      0.021836
