26
# total energy = -205.61104490 eVC      0.70327      1.25083      7.50000         0.003274      0.027896      0.000000
C     10.79590      6.56625      7.50000        -0.017922      0.009719      0.000000
C      0.73822     11.42983      7.50000        -0.008678     -0.023415      0.000000
C     11.53088      5.33459      7.50000        -0.003274     -0.027896      0.000000
C      1.43825      0.01917      7.50000         0.017922     -0.009719      0.000000
C     11.49593     -4.84441      7.50000         0.008678      0.023415      0.000000
C     10.79641     -3.65046      7.50000        -0.007078      0.011889      0.000000
C     10.85593      4.12612      7.50000         0.004181     -0.013700     -0.000000
C      2.82742      0.04330      7.50000        -0.017170      0.003809      0.000000
C      1.43774     10.23588      7.50000         0.007078     -0.011889     -0.000000
C      1.37822      2.45930      7.50000        -0.004181      0.013700     -0.000000
C      9.40673      6.54212      7.50000         0.017170     -0.003809      0.000000
N      7.76516      0.25916      7.50000        -0.012110      0.009716      0.000000
N      4.46899      6.32626      7.50000         0.012110     -0.009716      0.000000
N      4.00982      0.08422      7.50000        -0.009474     -0.004658     -0.000000
N     10.23028     -2.61141      7.50000        -0.001509      0.014210     -0.000000
N     10.29635      3.08354      7.50000        -0.004930     -0.009137      0.000000
N      8.22433      6.50120      7.50000         0.009474      0.004658      0.000000
N      2.00387      9.19683      7.50000         0.001509     -0.014210     -0.000000
N      1.93780      3.50188      7.50000         0.004930      0.009137     -0.000000
Ir      2.99073      7.53226      7.50000         0.007345      0.009316      0.000000
Ir      2.98026      5.13136      7.50000         0.003643     -0.011914     -0.000000
Ir      6.29714      6.40876      7.50000        -0.009130      0.000573      0.000000
Ir      9.24342     -0.94684      7.50000        -0.007345     -0.009316     -0.000000
Ir      9.25389      1.45406      7.50000        -0.003643      0.011914      0.000000
Ir      5.93701      0.17667      7.50000         0.009130     -0.000573      0.000000
