152
# total energy = -1005.90255082 eVH     10.35389      5.87395      7.64558         0.174683      0.080683      0.570903
H     10.62451     15.10445      7.64558        -0.106956     -0.151440      0.510146
H     10.62451      5.87395     13.33282         0.494486      0.112744     -0.601556
H     10.35389     15.10445     13.33282         0.051397     -0.177363     -0.486053
H      7.64558     10.35389      5.87395         0.359374      0.030522      0.171611
H      7.64558     10.62451     15.10445         0.717704      0.498082     -0.045200
H     13.33282     10.62451      5.87395        -0.470619      0.356414      0.109949
H     13.33282     10.35389     15.10445        -0.808223     -0.069057     -0.002936
H      5.87395      7.64558     10.35389         0.273934      1.074935      0.017089
H     15.10445      7.64558     10.62451        -0.103094      0.482626      0.284060
H      5.87395     13.33282     10.62451         0.153013     -0.683510     -0.171733
H     15.10445     13.33282     10.35389        -0.046589     -1.000572     -0.255169
H      5.87395     10.35389      7.64558         0.229844      0.027072      0.474008
H     15.10445     10.62451      7.64558        -0.132590      0.452448      0.793002
H      5.87395     10.62451     13.33282         0.145409      0.356481     -0.727026
H     15.10445     10.35389     13.33282        -0.075091     -0.042476     -0.674606
H     10.35389      7.64558      5.87395         0.332018      1.109718      0.047884
H     10.62451      7.64558     15.10445         0.605958      0.597166     -0.131600
H     10.62451     13.33282      5.87395        -0.403262     -0.799439      0.235712
H     10.35389     13.33282     15.10445        -0.055966     -0.458752     -0.252379
H      7.64558      5.87395     10.35389         0.923394      0.056131     -0.252379
H      7.64558     15.10445     10.62451         0.828999     -0.187585     -0.022430
H     13.33282      5.87395     10.62451        -0.777719      0.190815      0.571396
H     13.33282     15.10445     10.35389        -0.401377     -0.111754     -0.115661
H     12.45634     12.45634     19.01126         0.240219      0.268311     -0.238552
H     19.01126     19.01126     19.01126        -0.262464     -0.243629     -0.257959
H     19.01126     12.45634     12.45634        -0.269822      0.265808      0.223176
H     12.45634     19.01126     12.45634         0.233558     -0.262084      0.270413
C     10.35284      5.61067      6.59456        -0.355306     -0.690090     -0.029583
C     10.62556     15.36773      6.59456         0.084576      0.357955     -0.275142
C     10.62556      5.61067     14.38384        -0.271030     -0.439139     -0.245578
C     10.35284     15.36773     14.38384         0.004048      0.249704      0.474745
C      6.59456     10.35284      5.61067        -0.356861      0.001068     -0.256089
C      6.59456     10.62556     15.36773        -0.342179     -0.156669      0.734370
C     14.38384     10.62556      5.61067        -0.233218     -0.431500     -0.564325
C     14.38384     10.35284     15.36773         0.971190     -0.076195      0.192549
C      5.61067      6.59456     10.35284        -0.566074     -0.040226     -0.297768
C     15.36773      6.59456     10.62556         0.562444      0.000683     -0.257882
C      5.61067     14.38384     10.62556        -0.323032      0.983151      0.069562
C     15.36773     14.38384     10.35284         0.277798      1.010062      0.051611
C      5.61067     10.35284      6.59456        -0.240281     -0.042450     -0.665855
C     15.36773     10.62556      6.59456         0.436196     -0.272072      0.129357
C      5.61067     10.62556     14.38384        -0.639059     -0.301266     -0.070207
C     15.36773     10.35284     14.38384         0.401224     -0.050868      1.027233
C     10.35284      6.59456      5.61067        -0.224019     -0.554179     -0.566104
C     10.62556      6.59456     15.36773        -0.209438      0.048137      0.489524
C     10.62556     14.38384      5.61067         0.215093      1.040666     -0.333624
C     10.35284     14.38384     15.36773         0.000599      0.690073      0.386423
C      6.59456      5.61067     10.35284        -0.106213     -1.003439      0.243929
C      6.59456     15.36773     10.62556        -1.000983      0.259050      0.092896
C     14.38384      5.61067     10.62556         0.400745     -0.529970     -0.372623
C     14.38384     15.36773     10.35284         0.185571      0.418022     -0.069761
C     10.40319      3.19606      7.29314         0.012834      0.727512     -0.495725
C     10.35913      4.25547      6.23373         0.081305     -0.581261      0.063788
C      0.08601      7.29314      7.29314        -0.048988     -0.468315     -0.311304
C      0.13007      6.23373      6.23373        -0.036204      0.104149      0.580070
C      0.08601      3.19606      3.19606         0.005123      1.358018      0.293873
C      0.13007      4.25547      4.25547         0.048045     -0.737530     -0.198362
C     10.40319      7.29314      3.19606         0.009851     -0.312451      0.285864
C     10.35913      6.23373      4.25547         0.021427      0.033237     -0.738968
C      7.29314     10.40319      3.19606        -0.251409      0.019034      0.568361
C      6.23373     10.35913      4.25547         0.158233      0.051586     -0.068411
C      7.29314      0.08601      7.29314        -0.580706     -0.067368     -0.357293
C      6.23373      0.13007      6.23373         0.707956     -0.088352      0.472186
C      3.19606      0.08601      3.19606         0.930843     -0.022764      0.592259
C      4.25547      0.13007      4.25547        -0.597822     -0.075592     -0.533156
C      3.19606     10.40319      7.29314         0.475463     -0.010681     -0.778595
C      4.25547     10.35913      6.23373        -0.284691      0.073785      0.202068
C      3.19606      7.29314     10.40319         0.295347     -1.281177      0.034996
C      4.25547      6.23373     10.35913        -0.958671      0.082101      0.126660
C      7.29314      7.29314      0.08601        -0.415287     -0.388579     -0.021820
C      6.23373      6.23373      0.13007         0.464369      0.235475     -0.003789
C      3.19606      3.19606      0.08601         0.481283      0.385138     -0.040753
C      4.25547      4.25547      0.13007        -0.151435     -0.645854     -0.031989
C      7.29314      3.19606     10.40319        -0.353205      0.436559      0.064042
C      6.23373      4.25547     10.35913         0.302220     -0.697502      0.145203
O     10.43466      3.58206      8.50569        -0.009301      0.095831      0.498198
O     10.54374     17.39634      8.50569         0.041015     -0.160971      0.483298
O     10.54374      3.58206     12.47271         0.039233     -0.110464     -0.179900
O     10.43466     17.39634     12.47271        -0.036669     -0.182140     -0.515009
O      8.50569     10.43466      3.58206         0.264916     -0.019238      0.012025
O      8.50569     10.54374     17.39634         0.657067      0.017889     -0.153669
O     12.47271     10.54374      3.58206        -0.822899      0.098197      0.103006
O     12.47271     10.43466     17.39634        -0.433046      0.027025     -0.087215
O      3.58206      8.50569     10.43466         0.152200      1.039771     -0.023431
O     17.39634      8.50569     10.54374        -0.160801      0.551404      0.075049
O      3.58206     12.47271     10.54374         0.088368     -0.386328      0.054410
O     17.39634     12.47271     10.43466        -0.152240     -0.533898     -0.025725
O      3.58206     10.43466      8.50569         0.079828     -0.073495      0.616112
O     17.39634     10.54374      8.50569        -0.093956      0.076142      0.508560
O      3.58206     10.54374     12.47271        -0.003127      0.036421     -0.485166
O     17.39634     10.43466     12.47271        -0.237087     -0.041041     -0.648016
O     10.43466      8.50569      3.58206        -0.037071      0.444301      0.141717
O     10.54374      8.50569     17.39634         0.030775      0.564885     -0.156646
O     10.54374     12.47271      3.58206         0.034965     -1.049028      0.160849
O     10.43466     12.47271     17.39634         0.040272     -0.729395     -0.183957
O      8.50569      3.58206     10.43466         0.538770      0.154172     -0.058517
O      8.50569     17.39634     10.54374         0.495081     -0.194039      0.013219
O     12.47271      3.58206     10.54374        -0.621883      0.214676      0.000565
O     12.47271     17.39634     10.43466        -0.242553      0.058575     -0.043283
O     11.90042     11.90042     19.56718        -0.247024     -0.285747      0.243120
O     19.56718     19.56718     19.56718         0.311760      0.299480      0.294677
O     19.56718     11.90042     11.90042         0.303396     -0.263267     -0.237269
O     11.90042     19.56718     11.90042        -0.238700      0.299453     -0.315278
O      9.45224      1.03696      9.45224        -0.010545      0.091204     -0.086216
O      1.03696      9.45224      9.45224         0.088692     -0.081684     -0.139088
O      1.03696      1.03696      1.03696         0.097517      0.187781      0.051822
O      9.45224      9.45224      1.03696        -0.102477     -0.104483      0.034566
Zr     10.48920      2.52580     10.48920        -0.128590     -0.283066     -0.004727
Zr     10.48920     18.45260     10.48920        -0.071930      0.200135      0.071696
Zr     10.48920     10.48920      2.52580        -0.090023     -0.405319     -0.259060
Zr     10.48920     10.48920     18.45260        -0.240607     -0.120625      0.338473
Zr      2.52580     10.48920     10.48920        -0.375612      0.219889      0.253040
Zr     18.45260     10.48920     10.48920         0.213627     -0.000127     -0.189821
Pd     13.59860      8.92581      9.25302        -0.005389      0.000530      0.000462
Pd      5.64202      9.88202     10.11892         0.012136     -0.011293      0.027631
Pd      6.75780     11.83491     11.67076         0.023751     -0.024393      0.009244
Pd     12.17758     13.06577      7.32244        -0.017673     -0.013090     -0.000830
Pd     11.96558      7.81628      7.38214        -0.012359     -0.016001      0.002440
Pd      8.29045      7.01908      6.57750         0.002881     -0.019151      0.001232
Pd     10.85571     11.22319      5.60469        -0.043082     -0.011584      0.006167
Pd     14.50692      8.53912      6.77921        -0.018509      0.005691     -0.005523
Pd      9.67322     11.78633      8.02015         0.007365     -0.008602      0.020601
Pd      6.85381      6.80307     12.27587        -0.056955     -0.002923      0.015018
Pd      6.40727      7.71683      8.26050         0.016358      0.033329     -0.009131
Pd      6.62641      8.55241     14.24693        -0.030334     -0.009833      0.021539
Pd     11.49417      6.48930      9.73881         0.014693      0.010905      0.024704
Pd      9.63965      9.27842      7.04063        -0.019741     -0.011103      0.023496
Pd      9.00938     13.98600      9.33489        -0.002267      0.010659     -0.013780
Pd      9.55504      7.33370     11.71701         0.031247     -0.012270     -0.006902
Pd     10.53442      8.96869      9.64825         0.014759      0.006431      0.003988
Pd      9.31568     11.45320     10.61568         0.003635      0.020250      0.011268
Pd      8.88338      7.01033      9.14849         0.009995      0.006702      0.001911
Pd      8.59001      6.65170     14.24372         0.000630     -0.014409     -0.044178
Pd      7.73060      9.33638     11.85301         0.011732     -0.044429      0.013796
Pd     11.98158     10.45594      7.82461         0.005182     -0.016561     -0.019987
Pd      7.13836     12.03496      9.02864         0.002162     -0.001288      0.008726
Pd      8.05121      9.56909      9.13591         0.007543      0.004595      0.041952
Pd     14.04251      6.46630      8.49559         0.002130      0.003468     -0.003829
Pd     12.44723      8.26871     11.55305         0.025645      0.016790      0.015063
Pd      8.73990     11.55445     13.38340         0.014915      0.008527      0.002292
Pd     13.91982     11.94024      9.00435        -0.006328      0.004639     -0.007364
Pd     12.89589     10.60565     13.06340         0.019816      0.017964     -0.002541
Pd     14.77651     10.40042     11.12793         0.004058      0.005373     -0.011045
Pd     12.07845     10.80658     10.54510         0.002420      0.018655     -0.005807
Pd     11.45630     13.23285      9.85612        -0.000639      0.023044      0.008071
Pd     13.58392     12.86288     11.64980         0.007517      0.011377     -0.005622
Pd     11.07637     12.57364     12.45586         0.016603      0.009151      0.014427
Pd     10.96780     11.19216     14.81892        -0.003303     -0.035030     -0.006263
Pd     10.44982      9.73321     12.41020         0.018500      0.010872     -0.010436
Pd      9.17955      9.20966     14.56925        -0.042372     -0.015304     -0.059217
Pd      8.76387     13.78115     11.98261         0.024049      0.013468     -0.004955
