32
# total energy = -202.80409792 eVH      4.04629     -0.95331     10.00000        -0.006316      0.007779     -0.000000
H      6.60357      7.10201     10.00000         0.006316     -0.007779     -0.000000
H      9.45230     -2.16785     10.00000        -0.003574     -0.009300     -0.000000
H      1.19756      8.31655     10.00000         0.003574      0.009300     -0.000000
H      7.80112      3.12116     10.00000         0.009784      0.001581     -0.000000
H      2.84874      3.02754     10.00000        -0.009784     -0.001581     -0.000000
H      1.19756      3.98087     10.00000         0.003342     -0.008319     -0.000000
H      9.45230      2.16783     10.00000        -0.003342      0.008319     -0.000000
H      2.84876      9.26985     10.00000        -0.008821      0.001240     -0.000000
H      7.80110     -3.12115     10.00000         0.008821     -0.001240     -0.000000
H      6.60354      5.19538     10.00000         0.005481      0.006958     -0.000000
H      4.04632      0.95332     10.00000        -0.005481     -0.006958     -0.000000
C      4.64666     -1.86284     10.00000         0.000025      0.008793      0.000000
C      6.00320      8.01154     10.00000        -0.000025     -0.008793      0.000000
C      9.93979     -1.19315     10.00000        -0.007651     -0.004439     -0.000000
C      0.71007      7.34185     10.00000         0.007651      0.004439      0.000000
C      6.71326      3.05598     10.00000         0.007627     -0.004338      0.000000
C      3.93660      3.09272     10.00000        -0.007627      0.004338      0.000000
C      0.71009      4.95563     10.00000         0.005467     -0.011234      0.000000
C      9.93977      1.19307     10.00000        -0.005467      0.011234      0.000000
C      3.93666      9.20463     10.00000        -0.012536      0.000896      0.000000
C      6.71320     -3.05593     10.00000         0.012536     -0.000896     -0.000000
C      6.00311      4.28584     10.00000         0.007087      0.010337     -0.000000
C      4.64675      1.86286     10.00000        -0.007087     -0.010337      0.000000
C      6.03054     -1.85225     10.00000        -0.001395      0.007125     -0.000000
C      4.61932      8.00095     10.00000         0.001395     -0.007125     -0.000000
C      9.23869      0.00003     10.00000        -0.005472     -0.004715     -0.000000
C      1.41117      6.14867     10.00000         0.005472      0.004715     -0.000000
C      6.03050      1.85221     10.00000         0.006745     -0.002185     -0.000000
C      4.61936      4.29649     10.00000        -0.006745      0.002185     -0.000000
Au      3.54994      6.14873     10.00000         0.000147     -0.000256     -0.000000
Au      7.09993     -0.00003     10.00000        -0.000147      0.000256     -0.000000
