114
# total energy = -848.61360117 eVH     10.35402      5.87651      7.65127        -0.001237      0.006289      0.004309
H     10.62438     15.10189      7.65127         0.001237     -0.006289      0.004309
H     10.62438      5.87651     13.32713         0.001237      0.006289     -0.004309
H     10.35402     15.10189     13.32713        -0.001237     -0.006289     -0.004309
H      7.65127     10.35402      5.87651         0.004309     -0.001237      0.006289
H      7.65127     10.62438     15.10189         0.004309      0.001237     -0.006289
H     13.32713     10.62438      5.87651        -0.004309      0.001237      0.006289
H     13.32713     10.35402     15.10189        -0.004309     -0.001237     -0.006289
H      5.87651      7.65127     10.35402         0.006289      0.004309     -0.001237
H     15.10189      7.65127     10.62438        -0.006289      0.004309      0.001237
H      5.87651     13.32713     10.62438         0.006289     -0.004309      0.001237
H     15.10189     13.32713     10.35402        -0.006289     -0.004309     -0.001237
H      5.87651     10.35402      7.65127         0.006289     -0.001237      0.004309
H     15.10189     10.62438      7.65127        -0.006289      0.001237      0.004309
H      5.87651     10.62438     13.32713         0.006289      0.001237     -0.004309
H     15.10189     10.35402     13.32713        -0.006289     -0.001237     -0.004309
H     10.35402      7.65127      5.87651        -0.001237      0.004309      0.006289
H     10.62438      7.65127     15.10189         0.001237      0.004309     -0.006289
H     10.62438     13.32713      5.87651         0.001237     -0.004309      0.006289
H     10.35402     13.32713     15.10189        -0.001237     -0.004309     -0.006289
H      7.65127      5.87651     10.35402         0.004309      0.006289     -0.001237
H      7.65127     15.10189     10.62438         0.004309     -0.006289      0.001237
H     13.32713      5.87651     10.62438        -0.004309      0.006289      0.001237
H     13.32713     15.10189     10.35402        -0.004309     -0.006289     -0.001237
H     12.45768     12.45768     19.00992        -0.017825     -0.017825      0.017825
H     19.00992     19.00992     19.00992         0.017825      0.017825      0.017825
H     19.00992     12.45768     12.45768         0.017825     -0.017825     -0.017825
H     12.45768     19.00992     12.45768        -0.017825      0.017825     -0.017825
C     10.35216      5.61019      6.59410         0.003756      0.011443     -0.036786
C     10.62624     15.36821      6.59410        -0.003756     -0.011443     -0.036786
C     10.62624      5.61019     14.38430        -0.003756      0.011443      0.036786
C     10.35216     15.36821     14.38430         0.003756     -0.011443      0.036786
C      6.59410     10.35216      5.61019        -0.036786      0.003756      0.011443
C      6.59410     10.62624     15.36821        -0.036786     -0.003756     -0.011443
C     14.38430     10.62624      5.61019         0.036786     -0.003756      0.011443
C     14.38430     10.35216     15.36821         0.036786      0.003756     -0.011443
C      5.61019      6.59410     10.35216         0.011443     -0.036786      0.003756
C     15.36821      6.59410     10.62624        -0.011443     -0.036786     -0.003756
C      5.61019     14.38430     10.62624         0.011443      0.036786     -0.003756
C     15.36821     14.38430     10.35216        -0.011443      0.036786      0.003756
C      5.61019     10.35216      6.59410         0.011443      0.003756     -0.036786
C     15.36821     10.62624      6.59410        -0.011443     -0.003756     -0.036786
C      5.61019     10.62624     14.38430         0.011443     -0.003756      0.036786
C     15.36821     10.35216     14.38430        -0.011443      0.003756      0.036786
C     10.35216      6.59410      5.61019         0.003756     -0.036786      0.011443
C     10.62624      6.59410     15.36821        -0.003756     -0.036786     -0.011443
C     10.62624     14.38430      5.61019        -0.003756      0.036786      0.011443
C     10.35216     14.38430     15.36821         0.003756      0.036786     -0.011443
C      6.59410      5.61019     10.35216        -0.036786      0.011443      0.003756
C      6.59410     15.36821     10.62624        -0.036786     -0.011443     -0.003756
C     14.38430      5.61019     10.62624         0.036786      0.011443     -0.003756
C     14.38430     15.36821     10.35216         0.036786     -0.011443      0.003756
C     10.40415      3.19602      7.29318        -0.008215     -0.016748      0.016748
C     10.36087      4.25345      6.23575         0.001629      0.020742     -0.020742
C      0.08505      7.29318      7.29318         0.008215      0.016748      0.016748
C      0.12833      6.23575      6.23575        -0.001629     -0.020742     -0.020742
C      0.08505      3.19602      3.19602         0.008215     -0.016748     -0.016748
C      0.12833      4.25345      4.25345        -0.001629      0.020742      0.020742
C     10.40415      7.29318      3.19602        -0.008215      0.016748     -0.016748
C     10.36087      6.23575      4.25345         0.001629     -0.020742      0.020742
C      7.29318     10.40415      3.19602         0.016748     -0.008215     -0.016748
C      6.23575     10.36087      4.25345        -0.020742      0.001629      0.020742
C      7.29318      0.08505      7.29318         0.016748      0.008215      0.016748
C      6.23575      0.12833      6.23575        -0.020742     -0.001629     -0.020742
C      3.19602      0.08505      3.19602        -0.016748      0.008215     -0.016748
C      4.25345      0.12833      4.25345         0.020742     -0.001629      0.020742
C      3.19602     10.40415      7.29318        -0.016748     -0.008215      0.016748
C      4.25345     10.36087      6.23575         0.020742      0.001629     -0.020742
C      3.19602      7.29318     10.40415        -0.016748      0.016748     -0.008215
C      4.25345      6.23575     10.36087         0.020742     -0.020742      0.001629
C      7.29318      7.29318      0.08505         0.016748      0.016748      0.008215
C      6.23575      6.23575      0.12833        -0.020742     -0.020742     -0.001629
C      3.19602      3.19602      0.08505        -0.016748     -0.016748      0.008215
C      4.25345      4.25345      0.12833         0.020742      0.020742     -0.001629
C      7.29318      3.19602     10.40415         0.016748     -0.016748     -0.008215
C      6.23575      4.25345     10.36087        -0.020742      0.020742      0.001629
O     10.43220      3.58246      8.51392        -0.005239     -0.009295     -0.002901
O     10.54620     17.39594      8.51392         0.005239      0.009295     -0.002901
O     10.54620      3.58246     12.46448         0.005239     -0.009295      0.002901
O     10.43220     17.39594     12.46448        -0.005239      0.009295      0.002901
O      8.51392     10.43220      3.58246        -0.002901     -0.005239     -0.009295
O      8.51392     10.54620     17.39594        -0.002901      0.005239      0.009295
O     12.46448     10.54620      3.58246         0.002901      0.005239     -0.009295
O     12.46448     10.43220     17.39594         0.002901     -0.005239      0.009295
O      3.58246      8.51392     10.43220        -0.009295     -0.002901     -0.005239
O     17.39594      8.51392     10.54620         0.009295     -0.002901      0.005239
O      3.58246     12.46448     10.54620        -0.009295      0.002901      0.005239
O     17.39594     12.46448     10.43220         0.009295      0.002901     -0.005239
O      3.58246     10.43220      8.51392        -0.009295     -0.005239     -0.002901
O     17.39594     10.54620      8.51392         0.009295      0.005239     -0.002901
O      3.58246     10.54620     12.46448        -0.009295      0.005239      0.002901
O     17.39594     10.43220     12.46448         0.009295     -0.005239      0.002901
O     10.43220      8.51392      3.58246        -0.005239     -0.002901     -0.009295
O     10.54620      8.51392     17.39594         0.005239     -0.002901      0.009295
O     10.54620     12.46448      3.58246         0.005239      0.002901     -0.009295
O     10.43220     12.46448     17.39594        -0.005239      0.002901      0.009295
O      8.51392      3.58246     10.43220        -0.002901     -0.009295     -0.005239
O      8.51392     17.39594     10.54620        -0.002901      0.009295      0.005239
O     12.46448      3.58246     10.54620         0.002901     -0.009295      0.005239
O     12.46448     17.39594     10.43220         0.002901      0.009295     -0.005239
O     11.89622     11.89622     19.57138         0.004222      0.004222     -0.004222
O     19.57138     19.57138     19.57138        -0.004222     -0.004222     -0.004222
O     19.57138     11.89622     11.89622        -0.004222      0.004222      0.004222
O     11.89622     19.57138     11.89622         0.004222     -0.004222      0.004222
O      9.44841      1.04079      9.44841        -0.012262      0.012262     -0.012262
O      1.04079      9.44841      9.44841         0.012262     -0.012262     -0.012262
O      1.04079      1.04079      1.04079         0.012262      0.012262      0.012262
O      9.44841      9.44841      1.04079        -0.012262     -0.012262      0.012262
Zr     10.48920      2.52807     10.48920        -0.000000     -0.013224      0.000000
Zr     10.48920     18.45033     10.48920        -0.000000      0.013224      0.000000
Zr     10.48920     10.48920      2.52807        -0.000000     -0.000000     -0.013224
Zr     10.48920     10.48920     18.45033        -0.000000     -0.000000      0.013224
Zr      2.52807     10.48920     10.48920        -0.013224     -0.000000      0.000000
Zr     18.45033     10.48920     10.48920         0.013224     -0.000000      0.000000
