152
# total energy = -1060.12541619 eVH     10.35389      5.87395      7.64558        -0.280280      0.055236      1.119302
H     10.62451     15.10445      7.64558         0.112101     -0.087564      0.910288
H     10.62451      5.87395     13.33282        -0.264561      0.080772     -0.786739
H     10.35389     15.10445     13.33282         0.106055     -0.300414     -0.859066
H      7.64558     10.35389      5.87395         0.931022     -0.150678      0.191601
H      7.64558     10.62451     15.10445         0.318090     -0.028621     -0.072764
H     13.33282     10.62451      5.87395        -0.860762      0.196645      0.205254
H     13.33282     10.35389     15.10445        -0.281302     -0.016529     -0.064922
H      5.87395      7.64558     10.35389         0.087792      0.418245     -0.004600
H     15.10445      7.64558     10.62451        -0.017080      0.489408     -0.021484
H      5.87395     13.33282     10.62451        -0.010678     -0.959357      0.082359
H     15.10445     13.33282     10.35389        -0.097756     -0.325939      0.005328
H      5.87395     10.35389      7.64558         0.287048      0.107651      0.401595
H     15.10445     10.62451      7.64558        -0.123405     -0.168282      0.672548
H      5.87395     10.62451     13.33282        -0.082402      0.463564     -0.629014
H     15.10445     10.35389     13.33282         0.238739     -0.601211     -0.853552
H     10.35389      7.64558      5.87395        -0.036565      0.485477      0.335724
H     10.62451      7.64558     15.10445         0.269506      0.771317     -0.033102
H     10.62451     13.33282      5.87395         0.123473     -0.578161      0.212368
H     10.35389     13.33282     15.10445         0.041856     -0.292373     -0.145139
H      7.64558      5.87395     10.35389         0.352885      0.104449      0.037126
H      7.64558     15.10445     10.62451         0.384675     -0.120283      0.171614
H     13.33282      5.87395     10.62451        -0.317082      0.132041     -0.029859
H     13.33282     15.10445     10.35389        -0.651639     -0.134363      0.152876
H     12.45634     12.45634     19.01126         0.256741      0.271689     -0.227429
H     19.01126     19.01126     19.01126        -0.247771     -0.267419     -0.244435
H     19.01126     12.45634     12.45634        -0.250013      0.270103      0.235548
H     12.45634     19.01126     12.45634         0.290591     -0.235141      0.235232
C     10.35284      5.61067      6.59456         0.399333     -0.408078     -1.412989
C     10.62556     15.36773      6.59456        -0.163359      0.595893     -0.654388
C     10.62556      5.61067     14.38384         0.379499     -0.322027      0.832280
C     10.35284     15.36773     14.38384        -0.219247      0.240384      1.068270
C      6.59456     10.35284      5.61067        -1.374845      0.023404     -0.225577
C      6.59456     10.62556     15.36773        -0.631225      0.063682      0.357251
C     14.38384     10.62556      5.61067         1.318430     -0.171973     -0.638291
C     14.38384     10.35284     15.36773         0.350367     -0.129467      0.364064
C      5.61067      6.59456     10.35284        -0.280881     -0.651711     -0.023737
C     15.36773      6.59456     10.62556         0.420846     -0.936927      0.027018
C      5.61067     14.38384     10.62556        -0.145689      1.164005     -0.178778
C     15.36773     14.38384     10.35284         0.464696      0.663803     -0.028906
C      5.61067     10.35284      6.59456        -0.368041     -0.099690     -0.720334
C     15.36773     10.62556      6.59456         0.396233      0.117426     -0.705157
C      5.61067     10.62556     14.38384        -0.370151     -0.168346      1.234488
C     15.36773     10.35284     14.38384         0.244168      0.194757      1.433237
C     10.35284      6.59456      5.61067        -0.057087     -0.719977     -0.577811
C     10.62556      6.59456     15.36773        -0.112296     -0.912838      0.349137
C     10.62556     14.38384      5.61067        -0.481379      0.414233     -0.714213
C     10.35284     14.38384     15.36773        -0.157670      0.603570      0.423087
C      6.59456      5.61067     10.35284        -0.517831     -0.330560      0.020417
C      6.59456     15.36773     10.62556        -0.360821      0.437766      0.062653
C     14.38384      5.61067     10.62556         0.450689     -0.366779      0.001065
C     14.38384     15.36773     10.35284         1.116575      0.485020     -0.078347
C     10.40319      3.19606      7.29314        -0.002550      0.725237     -0.346067
C     10.35913      4.25547      6.23373         0.015187     -0.415038      0.292313
C      0.08601      7.29314      7.29314        -0.013929     -0.385414     -0.504625
C      0.13007      6.23373      6.23373        -0.066083      0.847636      0.069260
C      0.08601      3.19606      3.19606        -0.003309      0.686866      0.264805
C      0.13007      4.25547      4.25547         0.038746     -0.272503     -0.548069
C     10.40319      7.29314      3.19606        -0.065454     -1.145867      0.602275
C     10.35913      6.23373      4.25547        -0.040982      0.362623     -0.201811
C      7.29314     10.40319      3.19606        -1.085104     -0.055838      0.201867
C      6.23373     10.35913      4.25547         0.370048      0.088887     -0.548400
C      7.29314      0.08601      7.29314        -0.463545      0.030889     -0.488521
C      6.23373      0.13007      6.23373         0.183203      0.123408      0.124483
C      3.19606      0.08601      3.19606         0.695710      0.023152      0.164873
C      4.25547      0.13007      4.25547        -0.176444     -0.054174     -0.355674
C      3.19606     10.40319      7.29314         0.406200     -0.027392     -0.903752
C      4.25547     10.35913      6.23373        -0.149789     -0.071917      0.105022
C      3.19606      7.29314     10.40319         0.612879     -0.399646      0.002968
C      4.25547      6.23373     10.35913        -0.111339      0.182783      0.001024
C      7.29314      7.29314      0.08601        -0.415226     -0.308226     -0.014116
C      6.23373      6.23373      0.13007         0.172646      0.184261     -0.072988
C      3.19606      3.19606      0.08601         0.290226      0.481843     -0.023221
C      4.25547      4.25547      0.13007        -0.408933     -0.234041     -0.033532
C      7.29314      3.19606     10.40319        -0.278056      0.596406     -0.009722
C      6.23373      4.25547     10.35913         0.005724     -0.110550      0.020397
O     10.43466      3.58206      8.50569        -0.028766      0.082885      0.311336
O     10.54374     17.39634      8.50569         0.060672     -0.123534      0.583576
O     10.54374      3.58206     12.47271         0.028363      0.105575     -0.393739
O     10.43466     17.39634     12.47271         0.091023     -0.049591     -0.403720
O      8.50569     10.43466      3.58206         0.707875     -0.062522      0.010881
O      8.50569     10.54374     17.39634         0.516587      0.060301     -0.086722
O     12.47271     10.54374      3.58206        -0.649386      0.119463      0.206072
O     12.47271     10.43466     17.39634        -0.289687     -0.004146      0.027033
O      3.58206      8.50569     10.43466         0.037285      0.458448     -0.070684
O     17.39634      8.50569     10.54374        -0.059581      0.449055      0.057641
O      3.58206     12.47271     10.54374         0.115492     -0.583126      0.001385
O     17.39634     12.47271     10.43466        -0.178622     -0.747415     -0.052152
O      3.58206     10.43466      8.50569         0.206443     -0.060110      0.784383
O     17.39634     10.54374      8.50569        -0.080649      0.073367      0.516928
O      3.58206     10.54374     12.47271        -0.003028     -0.001758     -0.266188
O     17.39634     10.43466     12.47271         0.033436     -0.011590     -0.236101
O     10.43466      8.50569      3.58206        -0.104919      0.563065     -0.114357
O     10.54374      8.50569     17.39634         0.068865      0.512966     -0.082724
O     10.54374     12.47271      3.58206         0.104148     -0.625900      0.131796
O     10.43466     12.47271     17.39634        -0.055992     -0.682591     -0.269658
O      8.50569      3.58206     10.43466         0.392272      0.024718     -0.039356
O      8.50569     17.39634     10.54374         0.630676     -0.155428      0.046615
O     12.47271      3.58206     10.54374        -0.507760      0.126450      0.034456
O     12.47271     17.39634     10.43466        -0.623290     -0.129429      0.042549
O     11.90042     11.90042     19.56718        -0.273394     -0.304881      0.231113
O     19.56718     19.56718     19.56718         0.304817      0.317356      0.298868
O     19.56718     11.90042     11.90042         0.283778     -0.323698     -0.232468
O     11.90042     19.56718     11.90042        -0.315732      0.229017     -0.203012
O      9.45224      1.03696      9.45224        -0.087530      0.092915     -0.063860
O      1.03696      9.45224      9.45224         0.108782     -0.121509     -0.046456
O      1.03696      1.03696      1.03696         0.083748      0.058452      0.096418
O      9.45224      9.45224      1.03696        -0.062230     -0.131356      0.132106
Zr     10.48920      2.52580     10.48920         0.032264     -0.096786      0.089300
Zr     10.48920     18.45260     10.48920        -0.172979      0.258576     -0.345959
Zr     10.48920     10.48920      2.52580         0.120915      0.351961     -0.343479
Zr     10.48920     10.48920     18.45260        -0.083643     -0.212021      0.197800
Zr      2.52580     10.48920     10.48920        -0.257009      0.125721      0.235233
Zr     18.45260     10.48920     10.48920         0.221679     -0.121328     -0.016037
Pd      9.39520     14.29002      9.32859         0.000414      0.041706     -0.043607
Pd      8.61482     13.69406     13.00294        -0.004997     -0.018296      0.022482
Pd     12.04365     14.40571      8.74624         0.013171     -0.019730      0.011122
Pd     12.74508     12.82052     10.65933        -0.043131      0.032226      0.043676
Pd     12.14691      7.11381     12.61596         0.000130      0.001282     -0.002013
Pd     11.19288     14.86270     11.48155        -0.024850      0.037470     -0.032152
Pd     10.05085     12.52976     11.08309        -0.057592      0.062453     -0.041973
Pd     13.48886     12.14244      7.98637         0.014968      0.015331      0.003588
Pd     11.48600     11.56164      6.10776         0.006706      0.005674     -0.000881
Pd      7.86404      8.52572      7.53917         0.012126     -0.045717     -0.006030
Pd      8.73094     11.73746      6.87339        -0.009121      0.012785     -0.011445
Pd     10.30300      9.46240      8.14678        -0.004765     -0.012511     -0.002729
Pd      8.50028     14.44394      6.82038        -0.014454      0.015060     -0.032801
Pd     12.36736      9.04157      6.59467        -0.000698      0.013090      0.021746
Pd      9.74421      9.61434      5.55485         0.001048      0.007179      0.003620
Pd      6.87203      9.46362     12.18905         0.008561      0.008301      0.001302
Pd     12.21071      6.70102      7.88623         0.002274      0.013346      0.014321
Pd      5.94221     10.45375      9.72908        -0.011075     -0.009025      0.001356
Pd      7.57394      7.15145     13.29148         0.001468      0.024102      0.038014
Ir     11.76954      9.69565     13.06272        -0.026250     -0.032212     -0.006665
Ir     13.56637      9.00910     11.45450        -0.033701      0.021424     -0.000913
Ir      9.41226      8.83710     13.92711        -0.025342     -0.026752      0.053515
Ir     10.54593     10.88863     14.92612        -0.012253     -0.023790      0.101757
Ir      7.28367     12.02028     11.36537         0.021901     -0.025530     -0.000561
Ir     14.67545     10.86581     10.13426        -0.025735      0.031873      0.045079
Ir     12.19752     10.50054      9.64839         0.041656     -0.060113     -0.016513
Ir      8.80983     11.04432     13.00460         0.004685      0.053496     -0.055697
Ir     10.13766      9.87723     11.18829        -0.002943      0.015525     -0.051826
Ir     13.72196     11.37050     12.45608        -0.034164     -0.007998      0.076688
Ir     11.57317     12.27253     13.11487        -0.127802     -0.012161      0.010090
Ir      8.52245     11.07863      9.36670        -0.044253      0.043425     -0.026668
Ir     11.60038      7.97940     10.08048         0.039865      0.043066      0.013182
Ir      7.24698     13.01769      8.70251         0.011923      0.001728      0.011671
Ir      9.52337      6.99729      9.13444        -0.004368     -0.009926      0.035145
Ir      8.06429      8.75167     10.09436        -0.007684     -0.004581     -0.001764
Ir     10.75528     12.09741      8.52529        -0.022035      0.026330     -0.049001
Ir      9.56311      7.48701     11.68778        -0.019351      0.056177      0.043669
Ir     13.70687      8.71339      8.81736        -0.028671      0.044508      0.052514
