35
# total energy = -230.84042711 eVC      4.82649      9.03967      7.49840         0.099455     -0.056777      0.000000
C      7.18581      2.97263      7.49840        -0.099455      0.056777      0.000000
C      2.97263      4.82649      7.49840         0.056777      0.099455     -0.000000
C      9.03967      7.18581      7.49840        -0.056777     -0.099455      0.000000
C      7.18581      9.03967      7.49840        -0.099455     -0.056777     -0.000000
C      4.82649      2.97263      7.49840         0.099455      0.056777      0.000000
C      9.03967      4.82649      7.49840        -0.056777      0.099455      0.000000
C      2.97263      7.18581      7.49840         0.056777     -0.099455     -0.000000
C      8.47148      8.47148      7.49840        -0.073475     -0.073475     -0.000000
C      3.54082      3.54082      7.49840         0.073475      0.073475     -0.000000
C      3.54082      8.47148      7.49840         0.073475     -0.073475      0.000000
C      8.47148      3.54082      7.49840        -0.073475      0.073475     -0.000000
C     11.28934      0.72296      7.49840        -0.132746      0.132746     -0.000000
C      0.72296     11.28934      7.49840         0.132746     -0.132746     -0.000000
C     11.28934     11.28934      7.49840        -0.132746     -0.132746      0.000000
C      0.72296      0.72296      7.49840         0.132746      0.132746     -0.000000
N      6.00615      8.35480      7.49840        -0.000000      0.002855      0.000000
N      6.00615      3.65750      7.49840         0.000000     -0.002855     -0.000000
N      3.65750      6.00615      7.49840        -0.002855     -0.000000     -0.000000
N      8.35480      6.00615      7.49840         0.002855     -0.000000     -0.000000
O      4.71659     10.37901      7.49840        -0.126971     -0.064319     -0.000000
O      7.29571      1.63329      7.49840         0.126971      0.064319      0.000000
O      1.63329      4.71659      7.49840         0.064319     -0.126971     -0.000000
O     10.37901      7.29571      7.49840        -0.064319      0.126971      0.000000
O      7.29571     10.37901      7.49840         0.126971     -0.064319     -0.000000
O      4.71659      1.63329      7.49840        -0.126971      0.064319     -0.000000
O     10.37901      4.71659      7.49840        -0.064319     -0.126971     -0.000000
O      1.63329      7.29571      7.49840         0.064319      0.126971      0.000000
Au      9.91172      2.10058      7.49840         0.008855     -0.008855     -0.000000
Au      2.10058      9.91172      7.49840        -0.008855      0.008855      0.000000
Au      9.91172      9.91172      7.49840         0.008855      0.008855     -0.000000
Au      2.10058      2.10058      7.49840        -0.008855     -0.008855      0.000000
Au      6.00615      6.00615      7.49840         0.000000      0.000000     -0.000000
Au      6.00615     -0.00000      7.49840         0.000000      0.000000     -0.000000
Au      0.00000      6.00615      7.49840         0.000000      0.000000     -0.000000
