152
# total energy = -1060.03604725 eVH     10.35389      5.87395      7.64558        -0.269479      0.006394      1.146936
H     10.62451     15.10445      7.64558         0.060517     -0.087790      0.927622
H     10.62451      5.87395     13.33282        -0.249538      0.084522     -0.791926
H     10.35389     15.10445     13.33282         0.103941     -0.299011     -0.896064
H      7.64558     10.35389      5.87395         0.937075     -0.121722      0.179536
H      7.64558     10.62451     15.10445         0.331607     -0.040997     -0.077021
H     13.33282     10.62451      5.87395        -0.875619      0.218410      0.204364
H     13.33282     10.35389     15.10445        -0.278741     -0.011348     -0.069294
H      5.87395      7.64558     10.35389         0.088796      0.419510     -0.009102
H     15.10445      7.64558     10.62451         0.008164      0.502826     -0.031290
H      5.87395     13.33282     10.62451        -0.018481     -0.955217      0.074836
H     15.10445     13.33282     10.35389        -0.080981     -0.320204      0.003942
H      5.87395     10.35389      7.64558         0.271323      0.119797      0.413306
H     15.10445     10.62451      7.64558        -0.124148     -0.175915      0.656431
H      5.87395     10.62451     13.33282        -0.087500      0.455376     -0.624291
H     15.10445     10.35389     13.33282         0.258325     -0.643805     -0.817531
H     10.35389      7.64558      5.87395        -0.048243      0.476546      0.328403
H     10.62451      7.64558     15.10445         0.218705      0.744017     -0.044326
H     10.62451     13.33282      5.87395         0.127526     -0.570503      0.205490
H     10.35389     13.33282     15.10445         0.038217     -0.284312     -0.138904
H      7.64558      5.87395     10.35389         0.337926      0.094477      0.021681
H      7.64558     15.10445     10.62451         0.373699     -0.116066      0.155468
H     13.33282      5.87395     10.62451        -0.316702      0.128922     -0.035463
H     13.33282     15.10445     10.35389        -0.653344     -0.131897      0.145894
H     12.45634     12.45634     19.01126         0.254783      0.271122     -0.229322
H     19.01126     19.01126     19.01126        -0.245921     -0.268118     -0.245725
H     19.01126     12.45634     12.45634        -0.251583      0.269804      0.234658
H     12.45634     19.01126     12.45634         0.290943     -0.235910      0.233755
C     10.35284      5.61067      6.59456         0.392749     -0.423173     -1.457344
C     10.62556     15.36773      6.59456        -0.156218      0.581709     -0.633715
C     10.62556      5.61067     14.38384         0.385280     -0.340989      0.847065
C     10.35284     15.36773     14.38384        -0.235665      0.221414      1.107707
C      6.59456     10.35284      5.61067        -1.379026      0.019659     -0.240494
C      6.59456     10.62556     15.36773        -0.644593      0.059300      0.382506
C     14.38384     10.62556      5.61067         1.319786     -0.178320     -0.628554
C     14.38384     10.35284     15.36773         0.371599     -0.122439      0.357588
C      5.61067      6.59456     10.35284        -0.291956     -0.640492     -0.016882
C     15.36773      6.59456     10.62556         0.422656     -0.984772      0.033297
C      5.61067     14.38384     10.62556        -0.132542      1.161726     -0.178311
C     15.36773     14.38384     10.35284         0.455254      0.646129     -0.025089
C      5.61067     10.35284      6.59456        -0.369223     -0.098180     -0.706312
C     15.36773     10.62556      6.59456         0.419506      0.123443     -0.741709
C      5.61067     10.62556     14.38384        -0.380167     -0.171466      1.222833
C     15.36773     10.35284     14.38384         0.279802      0.192293      1.495659
C     10.35284      6.59456      5.61067        -0.050172     -0.705033     -0.620420
C     10.62556      6.59456     15.36773        -0.087137     -0.825615      0.348019
C     10.62556     14.38384      5.61067        -0.463405      0.411383     -0.704777
C     10.35284     14.38384     15.36773        -0.151838      0.594114      0.414794
C      6.59456      5.61067     10.35284        -0.511320     -0.341449      0.031151
C      6.59456     15.36773     10.62556        -0.388779      0.458643      0.052114
C     14.38384      5.61067     10.62556         0.446159     -0.380833      0.002738
C     14.38384     15.36773     10.35284         1.119118      0.498077     -0.071499
C     10.40319      3.19606      7.29314         0.001147      0.654076     -0.335717
C     10.35913      4.25547      6.23373         0.007072     -0.443616      0.287409
C      0.08601      7.29314      7.29314        -0.013053     -0.358431     -0.500564
C      0.13007      6.23373      6.23373        -0.075168      0.834809      0.058125
C      0.08601      3.19606      3.19606        -0.001842      0.677185      0.269730
C      0.13007      4.25547      4.25547         0.025964     -0.267963     -0.538404
C     10.40319      7.29314      3.19606        -0.067521     -1.169736      0.563857
C     10.35913      6.23373      4.25547        -0.036954      0.370874     -0.200796
C      7.29314     10.40319      3.19606        -1.090164     -0.058355      0.186471
C      6.23373     10.35913      4.25547         0.365893      0.081501     -0.542895
C      7.29314      0.08601      7.29314        -0.414708      0.033642     -0.551492
C      6.23373      0.13007      6.23373         0.176955      0.132002      0.130018
C      3.19606      0.08601      3.19606         0.705319      0.025288      0.160755
C      4.25547      0.13007      4.25547        -0.170658     -0.054029     -0.368864
C      3.19606     10.40319      7.29314         0.385095     -0.024935     -0.870729
C      4.25547     10.35913      6.23373        -0.160320     -0.083223      0.094763
C      3.19606      7.29314     10.40319         0.602350     -0.390720      0.002127
C      4.25547      6.23373     10.35913        -0.113550      0.185383     -0.001038
C      7.29314      7.29314      0.08601        -0.405541     -0.323299     -0.015058
C      6.23373      6.23373      0.13007         0.192022      0.191409     -0.059406
C      3.19606      3.19606      0.08601         0.288636      0.479534     -0.023544
C      4.25547      4.25547      0.13007        -0.396707     -0.227671     -0.030623
C      7.29314      3.19606     10.40319        -0.280471      0.589247     -0.012623
C      6.23373      4.25547     10.35913         0.004871     -0.117523      0.021354
O     10.43466      3.58206      8.50569        -0.029431      0.099314      0.324692
O     10.54374     17.39634      8.50569         0.064099     -0.132588      0.592479
O     10.54374      3.58206     12.47271         0.027076      0.107686     -0.391456
O     10.43466     17.39634     12.47271         0.088213     -0.041982     -0.369893
O      8.50569     10.43466      3.58206         0.709416     -0.058098      0.007524
O      8.50569     10.54374     17.39634         0.457708      0.056759     -0.071892
O     12.47271     10.54374      3.58206        -0.652592      0.116323      0.205105
O     12.47271     10.43466     17.39634        -0.283749     -0.005036      0.014984
O      3.58206      8.50569     10.43466         0.042903      0.463080     -0.067709
O     17.39634      8.50569     10.54374        -0.062158      0.459820      0.055416
O      3.58206     12.47271     10.54374         0.115269     -0.584429      0.001662
O     17.39634     12.47271     10.43466        -0.169038     -0.737726     -0.059937
O      3.58206     10.43466      8.50569         0.215517     -0.062478      0.777827
O     17.39634     10.54374      8.50569        -0.112866      0.076143      0.587308
O      3.58206     10.54374     12.47271        -0.001983     -0.000749     -0.267143
O     17.39634     10.43466     12.47271         0.041853     -0.013387     -0.213642
O     10.43466      8.50569      3.58206        -0.100786      0.571667     -0.125084
O     10.54374      8.50569     17.39634         0.066137      0.503458     -0.096208
O     10.54374     12.47271      3.58206         0.105478     -0.622631      0.133229
O     10.43466     12.47271     17.39634        -0.060260     -0.637293     -0.245644
O      8.50569      3.58206     10.43466         0.398833      0.028810     -0.032535
O      8.50569     17.39634     10.54374         0.626919     -0.153279      0.049775
O     12.47271      3.58206     10.54374        -0.506224      0.126695      0.037192
O     12.47271     17.39634     10.43466        -0.622436     -0.136485      0.038258
O     11.90042     11.90042     19.56718        -0.273718     -0.307864      0.236095
O     19.56718     19.56718     19.56718         0.301756      0.318601      0.300098
O     19.56718     11.90042     11.90042         0.284849     -0.324882     -0.230517
O     11.90042     19.56718     11.90042        -0.317412      0.229816     -0.201398
O      9.45224      1.03696      9.45224        -0.085724      0.084161     -0.065876
O      1.03696      9.45224      9.45224         0.101267     -0.117375     -0.044316
O      1.03696      1.03696      1.03696         0.084769      0.057429      0.097950
O      9.45224      9.45224      1.03696        -0.062345     -0.133033      0.130215
Zr     10.48920      2.52580     10.48920         0.030051     -0.088375      0.067927
Zr     10.48920     18.45260     10.48920        -0.169204      0.263250     -0.346930
Zr     10.48920     10.48920      2.52580         0.122482      0.359359     -0.354625
Zr     10.48920     10.48920     18.45260        -0.082672     -0.196240      0.172391
Zr      2.52580     10.48920     10.48920        -0.256637      0.124785      0.222729
Zr     18.45260     10.48920     10.48920         0.231155     -0.109176      0.002590
Pd      9.39235     14.23389      9.37552         0.003304      0.041303     -0.030166
Pd      8.62913     13.72276     12.96637        -0.005036     -0.009805      0.008185
Pd     12.02648     14.41228      8.74677         0.012360     -0.001676     -0.004058
Pd     12.77859     12.80300     10.61449        -0.015239      0.027548      0.023942
Pd     12.15268      7.10132     12.59906        -0.010251      0.016440      0.023745
Pd     11.22941     14.81303     11.51871        -0.031312      0.029019     -0.026306
Pd     10.10542     12.47054     11.13402        -0.027875      0.039167     -0.037776
Pd     13.48141     12.13397      7.97508         0.002624     -0.002418      0.009875
Pd     11.48377     11.55550      6.11160         0.001241      0.003940     -0.004172
Pd      7.84874      8.58918      7.54288         0.012725     -0.035312     -0.002586
Pd      8.74507     11.72389      6.88989        -0.008371      0.008955     -0.010783
Pd     10.31970      9.45716      8.12617        -0.006571      0.008486      0.016483
Pd      8.51026     14.42495      6.85985        -0.003926      0.012970     -0.027704
Pd     12.38516      9.02841      6.57034        -0.017183      0.005721      0.011311
Pd      9.75070      9.61173      5.54176        -0.005330     -0.001430      0.012006
Pd      6.88981      9.46074     12.19800        -0.011056      0.007404     -0.004119
Pd     12.20582      6.67990      7.85327         0.002464      0.013195      0.021728
Pd      5.96093     10.47633      9.74208        -0.014724     -0.021658     -0.011552
Pd      7.58069      7.10735     13.23417         0.000633      0.037703      0.034103
Ir     11.82407      9.69288     13.05915        -0.045226      0.005379     -0.005561
Ir     13.58449      8.98422     11.43199        -0.014225      0.005503      0.012604
Ir      9.42662      8.82709     13.82763         0.000799      0.025317      0.060105
Ir     10.57576     10.91179     14.86394        -0.019497     -0.013416      0.038984
Ir      7.30776     12.04228     11.36899        -0.027132     -0.013835     -0.008375
Ir     14.69905     10.82154     10.07150        -0.012700      0.021005      0.037101
Ir     12.20059     10.46591      9.65172         0.001548      0.013501      0.013763
Ir      8.78367     11.06246     13.03530         0.028985     -0.013498     -0.015277
Ir     10.15084      9.83827     11.24074        -0.013820      0.005024     -0.019155
Ir     13.79189     11.35628     12.39102        -0.043438      0.006931      0.040451
Ir     11.68937     12.28915     13.11598        -0.080233      0.002147     -0.004604
Ir      8.54488     11.06268      9.39338        -0.019200     -0.000702     -0.023273
Ir     11.59052      7.96553     10.05371         0.008751      0.017309      0.021237
Ir      7.23522     12.97774      8.69150         0.013749      0.028440      0.010535
Ir      9.50553      7.00678      9.07503         0.012158     -0.004569      0.026490
Ir      8.07454      8.74023     10.10611        -0.013406      0.010905      0.003079
Ir     10.76628     12.08325      8.54132        -0.012934      0.018965     -0.019984
Ir      9.57546      7.40172     11.63358        -0.000956      0.059432      0.028484
Ir     13.69735      8.67560      8.79500        -0.008013      0.043071      0.015316
