152
# total energy = -1004.36100776 eVH     10.35389      5.87395      7.64558        -0.121198      0.162463      0.646847
H     10.62451     15.10445      7.64558        -0.233319     -0.152060      0.613603
H     10.62451      5.87395     13.33282         0.428362      0.033098     -0.900156
H     10.35389     15.10445     13.33282         0.061898     -0.182560     -0.527668
H      7.64558     10.35389      5.87395         0.374192      0.051464      0.141112
H      7.64558     10.62451     15.10445         0.837238      0.591586      0.018880
H     13.33282     10.62451      5.87395        -0.448363      0.012973      0.220586
H     13.33282     10.35389     15.10445        -0.786686     -0.220070      0.024967
H      5.87395      7.64558     10.35389         0.127517      1.754185      0.119080
H     15.10445      7.64558     10.62451        -0.078740      0.499848      0.234835
H      5.87395     13.33282     10.62451         0.208176     -0.600466     -0.013655
H     15.10445     13.33282     10.35389         0.238155     -1.400018     -0.443630
H      5.87395     10.35389      7.64558         0.128527      0.038595      0.519252
H     15.10445     10.62451      7.64558        -0.193292      0.966814      1.440242
H      5.87395     10.62451     13.33282        -0.096944      0.594312     -1.352436
H     15.10445     10.35389     13.33282         0.112661     -0.201772     -0.775710
H     10.35389      7.64558      5.87395         0.339211      1.298002      0.156136
H     10.62451      7.64558     15.10445         0.541244      0.790422     -0.087276
H     10.62451     13.33282      5.87395        -0.571052     -0.752843      0.278786
H     10.35389     13.33282     15.10445        -0.233454     -0.520935     -0.333187
H      7.64558      5.87395     10.35389         1.185566     -0.249873     -0.083605
H      7.64558     15.10445     10.62451         0.818502     -0.199416     -0.036846
H     13.33282      5.87395     10.62451        -0.598523      0.115714      0.660697
H     13.33282     15.10445     10.35389        -0.465973     -0.022136     -0.191492
H     12.45634     12.45634     19.01126         0.270872      0.249275     -0.231391
H     19.01126     19.01126     19.01126        -0.265922     -0.268391     -0.219577
H     19.01126     12.45634     12.45634        -0.277731      0.253179      0.229838
H     12.45634     19.01126     12.45634         0.248067     -0.281250      0.234623
C     10.35284      5.61067      6.59456        -0.137600     -0.800484     -0.469069
C     10.62556     15.36773      6.59456         0.120136      0.292421     -0.211667
C     10.62556      5.61067     14.38384        -0.050014     -0.520161      0.577192
C     10.35284     15.36773     14.38384         0.006464      0.243843      0.511776
C      6.59456     10.35284      5.61067        -0.525679      0.058457     -0.365197
C      6.59456     10.62556     15.36773        -0.974883      0.232368      0.757309
C     14.38384     10.62556      5.61067         0.737044      0.039414     -0.953718
C     14.38384     10.35284     15.36773         0.907864     -0.120834      0.406315
C      5.61067      6.59456     10.35284        -0.895141     -1.032889     -0.491013
C     15.36773      6.59456     10.62556         0.716980      0.010941     -0.244863
C      5.61067     14.38384     10.62556        -0.237476      0.665059      0.015756
C     15.36773     14.38384     10.35284         0.301054      1.383105      0.031464
C      5.61067     10.35284      6.59456        -0.275076      0.015974     -0.682718
C     15.36773     10.62556      6.59456         0.449309     -0.380664     -1.060110
C      5.61067     10.62556     14.38384        -0.437958      0.007395      1.077506
C     15.36773     10.35284     14.38384         0.445133     -0.060691      0.895792
C     10.35284      6.59456      5.61067        -0.102060     -0.969685     -0.374726
C     10.62556      6.59456     15.36773         0.077969     -0.709068      0.513809
C     10.62556     14.38384      5.61067         0.151686      1.024071     -0.392055
C     10.35284     14.38384     15.36773        -0.019205      1.012401      0.492328
C      6.59456      5.61067     10.35284        -0.595535     -1.249174      0.081509
C      6.59456     15.36773     10.62556        -0.950832      0.165744      0.114700
C     14.38384      5.61067     10.62556        -0.145474     -0.505413     -0.322968
C     14.38384     15.36773     10.35284         0.200228      0.638214     -0.075392
C     10.40319      3.19606      7.29314         0.003939      0.814235     -0.600851
C     10.35913      4.25547      6.23373         0.025623     -0.528678      0.126455
C      0.08601      7.29314      7.29314        -0.023079     -0.983730     -0.244629
C      0.13007      6.23373      6.23373        -0.065339      0.408388      0.344879
C      0.08601      3.19606      3.19606         0.052243      1.276994      0.162219
C      0.13007      4.25547      4.25547        -0.015155     -0.348311     -0.444731
C     10.40319      7.29314      3.19606        -0.010805     -0.535731      0.239727
C     10.35913      6.23373      4.25547        -0.021540      0.129288     -0.699151
C      7.29314     10.40319      3.19606        -0.355087      0.024535      0.368623
C      6.23373     10.35913      4.25547         0.222316      0.083733     -0.098499
C      7.29314      0.08601      7.29314        -1.060061     -0.085318     -0.400914
C      6.23373      0.13007      6.23373         0.649945     -0.191067      0.409405
C      3.19606      0.08601      3.19606         1.164216     -0.019544      0.330386
C      4.25547      0.13007      4.25547        -0.625666     -0.160124     -0.199731
C      3.19606     10.40319      7.29314         0.555450      0.031045     -0.283137
C      4.25547     10.35913      6.23373        -0.233870      0.095469      0.212095
C      3.19606      7.29314     10.40319         0.320699     -0.686636      0.038611
C      4.25547      6.23373     10.35913        -1.067296      0.074398      0.182224
C      7.29314      7.29314      0.08601        -0.486335     -0.495185     -0.018263
C      6.23373      6.23373      0.13007         0.502133      0.320040      0.023156
C      3.19606      3.19606      0.08601         0.573779      0.423556     -0.021725
C      4.25547      4.25547      0.13007        -0.048322     -0.764350     -0.106887
C      7.29314      3.19606     10.40319        -0.395573      0.499568      0.051872
C      6.23373      4.25547     10.35913         0.570503     -0.737469      0.199266
O     10.43466      3.58206      8.50569         0.018751      0.122891      0.543448
O     10.54374     17.39634      8.50569         0.052040     -0.032527      0.294406
O     10.54374      3.58206     12.47271        -0.002673     -0.071218     -0.165280
O     10.43466     17.39634     12.47271        -0.037578     -0.119009     -0.431055
O      8.50569     10.43466      3.58206         0.486945     -0.033866      0.099782
O      8.50569     10.54374     17.39634         0.836374     -0.070886     -0.171358
O     12.47271     10.54374      3.58206        -0.872405      0.132199      0.110861
O     12.47271     10.43466     17.39634        -0.614795      0.026482     -0.167345
O      3.58206      8.50569     10.43466         0.184195      0.754839     -0.021863
O     17.39634      8.50569     10.54374        -0.146288      0.671228      0.026424
O      3.58206     12.47271     10.54374         0.108651     -0.554529      0.053845
O     17.39634     12.47271     10.43466        -0.169750     -0.598553     -0.047075
O      3.58206     10.43466      8.50569         0.084046     -0.047821      0.417767
O     17.39634     10.54374      8.50569         0.041815      0.094545      0.376348
O      3.58206     10.54374     12.47271        -0.017696      0.029561     -0.266852
O     17.39634     10.43466     12.47271        -0.147341     -0.030768     -0.536640
O     10.43466      8.50569      3.58206        -0.029029      0.615431      0.173488
O     10.54374      8.50569     17.39634        -0.097949      0.805587     -0.213770
O     10.54374     12.47271      3.58206         0.104670     -0.957936      0.154447
O     10.43466     12.47271     17.39634         0.057668     -0.660529     -0.157757
O      8.50569      3.58206     10.43466         0.570468      0.142021     -0.047815
O      8.50569     17.39634     10.54374         0.569326     -0.153093      0.011848
O     12.47271      3.58206     10.54374        -0.713806      0.148940      0.017074
O     12.47271     17.39634     10.43466        -0.476311     -0.095706     -0.031999
O     11.90042     11.90042     19.56718        -0.325286     -0.280516      0.245023
O     19.56718     19.56718     19.56718         0.297440      0.317167      0.213873
O     19.56718     11.90042     11.90042         0.343997     -0.276806     -0.242234
O     11.90042     19.56718     11.90042        -0.272619      0.350726     -0.240885
O      9.45224      1.03696      9.45224        -0.028175      0.088140     -0.130325
O      1.03696      9.45224      9.45224         0.060370     -0.027529     -0.121630
O      1.03696      1.03696      1.03696         0.067308      0.096174      0.098790
O      9.45224      9.45224      1.03696        -0.044230     -0.034007      0.082722
Zr     10.48920      2.52580     10.48920        -0.068930     -0.213317      0.081125
Zr     10.48920     18.45260     10.48920         0.021768      0.062779      0.118238
Zr     10.48920     10.48920      2.52580        -0.321087     -0.340661     -0.375756
Zr     10.48920     10.48920     18.45260         0.151989     -0.007059      0.395416
Zr      2.52580     10.48920     10.48920        -0.167633      0.019519     -0.061672
Zr     18.45260     10.48920     10.48920         0.160150     -0.022208      0.095496
Pd     12.90830      8.41772      9.84970        -0.037498      0.054015     -0.056287
Pd      6.48057      9.54939     10.37438        -0.059800      0.041520     -0.110607
Pd      6.96031     11.66060     11.81481        -0.025645      0.045013     -0.035870
Pd     12.34362     13.49684      7.23485        -0.006096     -0.154607      0.015361
Pd     12.12241      7.91309      7.18018         0.026765     -0.036493      0.002392
Pd      8.49744      7.31716      6.86984        -0.001442     -0.021519      0.028540
Pd     11.44432     11.50010      5.62921         0.005943     -0.013485      0.065634
Pd     14.54291      8.87479      7.81791        -0.037375     -0.068079     -0.087334
Pd      9.84987     11.78805      7.94021         0.022155      0.057244      0.043859
Pd      7.07591      7.14053     12.00380        -0.064190     -0.011094     -0.056535
Pd      6.38871      7.51614      8.41206        -0.014840      0.037885      0.102185
Pd      7.25048      9.23799     13.50710         0.087441     -0.202455     -0.001863
Pd     11.40031      6.25350      9.23769         0.050421      0.017776     -0.026604
Pd     10.00101      9.55109      6.47212        -0.015014     -0.032407      0.061099
Pd      9.08534     13.96968      9.38360        -0.002938      0.002401     -0.031063
Pd     10.90130      7.38098     11.51412         0.015224     -0.052625     -0.066892
Pd     10.44008      9.07479      9.20830         0.005755      0.021323     -0.073305
Pd      9.42302     11.54762     10.56339        -0.036068     -0.003977     -0.035062
Pd      8.84666      7.10813      9.57447         0.012402     -0.050151     -0.023901
Pd      9.14557      7.38307     13.55487        -0.026719      0.037388      0.014804
Pd      8.86181      9.16180     11.37410        -0.035779      0.057003      0.091138
Pd     12.26021     10.56004      7.97998        -0.052328     -0.071864     -0.041261
Pd      7.21402     11.95218      9.13517         0.052607     -0.000971      0.049908
Pd      8.10048      9.62446      8.28778        -0.026783      0.002610      0.065057
Pd     14.02927      6.35929      8.51006        -0.061663      0.096443     -0.004861
Pd     13.28973      8.44900     12.41990        -0.120350      0.069984      0.010274
Pd      9.06360     11.39498     13.31172         0.108840      0.107803     -0.026477
Pd     13.99092     12.23236      8.87368        -0.055383      0.026768      0.067391
Pd     13.18177     11.09881     13.12094        -0.005026     -0.021996      0.063775
Pd     14.55122     10.34986     10.71503        -0.028052     -0.004013      0.080308
Pd     11.91426     10.70799     10.76668         0.046127     -0.093436     -0.103828
Pd     11.55972     13.15364      9.70466        -0.039431      0.003972      0.017707
Pd     13.65522     13.01196     11.49014        -0.079726      0.027519      0.055022
Pd     11.15262     12.77926     12.36331         0.112793     -0.002684     -0.012917
Pd     11.24386     11.58783     14.86426        -0.025992     -0.099614     -0.042636
Pd     10.97401      9.58360     12.99597         0.037259      0.002127      0.014587
Pd      9.49013      9.55250     15.22794         0.064401      0.009431      0.066659
Pd      8.72348     13.77809     12.04256        -0.003024     -0.072032     -0.002726
