38
# total energy = -255.13026437 eVH      1.22364      6.94274      7.50000         0.005851     -0.008402      0.000000
H      8.09783      6.77206      7.50000         0.004497      0.000900     -0.000000
H      4.46047     13.87134      7.50000         0.010137     -0.013472     -0.000000
H     12.67617      2.18038      7.50000        -0.005851      0.008402      0.000000
H      5.80198      2.35106      7.50000        -0.004497     -0.000900     -0.000000
H      9.43934     -4.74822      7.50000        -0.010137      0.013472     -0.000000
H      5.81682     -2.34375      7.50000         0.007758     -0.031096     -0.000000
H      9.43986      4.73121      7.50000        -0.008154     -0.011107     -0.000000
H     12.66385     -2.17328      7.50000         0.003110     -0.002273     -0.000000
H      8.08299     11.46687      7.50000        -0.007758      0.031096     -0.000000
H      4.45995      4.39191      7.50000         0.008154      0.011107     -0.000000
H      1.23596     11.29640      7.50000        -0.003110      0.002273     -0.000000
C      7.73841     -3.37107      7.50000         0.015509      0.037119     -0.000000
C     12.48229      0.00349      7.50000         0.041181      0.028044     -0.000000
C      7.73044      3.36568      7.50000         0.013567     -0.044005     -0.000000
C      6.16140     12.49419      7.50000        -0.015509     -0.037119     -0.000000
C      1.41752      9.11963      7.50000        -0.041181     -0.028044     -0.000000
C      6.16937      5.75744      7.50000        -0.013567      0.044005     -0.000000
C     13.20697     -1.22625      7.50000         0.011483     -0.017219     -0.000000
C      8.34982      4.64539      7.50000         0.060473     -0.034594     -0.000000
C      6.31723     -3.31594      7.50000         0.023457      0.115956      0.000000
C      0.69284     10.34937      7.50000        -0.011483      0.017219     -0.000000
C      5.54999      4.47773      7.50000        -0.060473      0.034594     -0.000000
C      7.58258     12.43907      7.50000        -0.023457     -0.115956      0.000000
C      5.54990     13.77790      7.50000        -0.075077     -0.073265      0.000000
C      7.59064      5.80466      7.50000        -0.031247      0.037405     -0.000000
C      0.68644      7.89273      7.50000         0.001828      0.018706      0.000000
C      8.34991     -4.65478      7.50000         0.075077      0.073265      0.000000
C      6.30917      3.31846      7.50000         0.031247     -0.037405     -0.000000
C     13.21337      1.23039      7.50000        -0.001828     -0.018706      0.000000
N      5.83935      9.12838      7.50000         0.023719      0.007422     -0.000000
N      8.06046     -0.00526      7.50000        -0.023719     -0.007422     -0.000000
Ir      8.78206      1.65197      7.50000        -0.038965      0.000309      0.000000
Ir      8.79048     -1.65902      7.50000        -0.026199     -0.005853     -0.000000
Ir     10.55326      0.00183      7.50000        -0.036393     -0.012364     -0.000000
Ir      5.11775      7.47115      7.50000         0.038965     -0.000309     -0.000000
Ir      5.10934     10.78214      7.50000         0.026199      0.005853     -0.000000
Ir      3.34655      9.12129      7.50000         0.036393      0.012364     -0.000000
