152
# total energy = -1002.90058863 eVH     10.35389      5.87395      7.64558        -0.032042      0.170179      1.006094
H     10.62451     15.10445      7.64558        -0.006839     -0.105531      1.078427
H     10.62451      5.87395     13.33282         0.055284      0.013847     -1.090407
H     10.35389     15.10445     13.33282        -0.134264     -0.182370     -0.918503
H      7.64558     10.35389      5.87395         0.897284      0.317782     -0.251906
H      7.64558     10.62451     15.10445         0.747334      0.329201      0.048766
H     13.33282     10.62451      5.87395        -0.521993      0.138441      0.009662
H     13.33282     10.35389     15.10445        -0.687572     -0.174779      0.052276
H      5.87395      7.64558     10.35389        -0.320379      2.151539      0.232652
H     15.10445      7.64558     10.62451         0.042578      1.385972      0.006437
H      5.87395     13.33282     10.62451         0.073256     -0.944133     -0.099356
H     15.10445     13.33282     10.35389         0.158303     -1.206136     -0.379996
H      5.87395     10.35389      7.64558        -0.810504      0.321743      1.339391
H     15.10445     10.62451      7.64558         0.261213      0.754921      1.646948
H      5.87395     10.62451     13.33282        -0.437452      0.509735     -1.282308
H     15.10445     10.35389     13.33282         1.275156     -0.078334     -1.177980
H     10.35389      7.64558      5.87395         0.483048      1.264150     -0.054144
H     10.62451      7.64558     15.10445         0.325135      0.761097     -0.065255
H     10.62451     13.33282      5.87395        -0.369347     -0.892369      0.029746
H     10.35389     13.33282     15.10445        -0.125165     -0.481640     -0.158932
H      7.64558      5.87395     10.35389         0.824529     -0.160715     -0.023333
H      7.64558     15.10445     10.62451         0.540334     -0.173210     -0.050689
H     13.33282      5.87395     10.62451        -1.047723      0.035726      0.304114
H     13.33282     15.10445     10.35389        -0.427077     -0.085954     -0.059374
H     12.45634     12.45634     19.01126         0.263902      0.234710     -0.245860
H     19.01126     19.01126     19.01126        -0.259093     -0.252779     -0.235326
H     19.01126     12.45634     12.45634        -0.257012      0.267023      0.232312
H     12.45634     19.01126     12.45634         0.265092     -0.263823      0.226555
C     10.35284      5.61067      6.59456        -0.112650     -0.960564     -0.982167
C     10.62556     15.36773      6.59456        -0.031389      0.459216     -0.935158
C     10.62556      5.61067     14.38384        -0.143092     -0.602241      1.467155
C     10.35284     15.36773     14.38384         0.141703      0.297238      0.942507
C      6.59456     10.35284      5.61067        -1.710226      0.174998     -1.029350
C      6.59456     10.62556     15.36773        -1.054735      0.240280      0.813236
C     14.38384     10.62556      5.61067         1.484617      0.165458     -0.950939
C     14.38384     10.35284     15.36773         1.257104      0.017576      0.800688
C      5.61067      6.59456     10.35284        -0.657480     -1.410434     -0.008214
C     15.36773      6.59456     10.62556         0.562728     -0.547167      0.091042
C      5.61067     14.38384     10.62556        -0.347395      1.044689      0.050280
C     15.36773     14.38384     10.35284         0.312535      1.438249      0.071820
C      5.61067     10.35284      6.59456        -0.384479     -0.010609     -1.645235
C     15.36773     10.62556      6.59456         0.497879      0.027144     -1.370553
C      5.61067     10.62556     14.38384        -0.265315     -0.055980      1.364895
C     15.36773     10.35284     14.38384         0.074775     -0.039614      1.788405
C     10.35284      6.59456      5.61067        -0.005242     -1.140195     -0.671501
C     10.62556      6.59456     15.36773         0.070603     -0.707024      0.624330
C     10.62556     14.38384      5.61067         0.089251      0.724148     -0.499679
C     10.35284     14.38384     15.36773        -0.036696      0.455157      0.413067
C      6.59456      5.61067     10.35284        -0.430699     -1.195209      0.020151
C      6.59456     15.36773     10.62556        -0.682172      0.594657      0.009132
C     14.38384      5.61067     10.62556         0.619399     -0.809254     -0.121503
C     14.38384     15.36773     10.35284         0.412766      0.554895     -0.055675
C     10.40319      3.19606      7.29314        -0.026679      0.325665     -0.900190
C     10.35913      4.25547      6.23373        -0.059539     -0.518760      0.171007
C      0.08601      7.29314      7.29314        -0.015053     -0.549536     -0.327713
C      0.13007      6.23373      6.23373        -0.044859      0.397247      0.359587
C      0.08601      3.19606      3.19606         0.002140      0.400747      0.530502
C      0.13007      4.25547      4.25547        -0.004346     -0.446122     -0.407801
C     10.40319      7.29314      3.19606        -0.049776     -0.756839      0.256774
C     10.35913      6.23373      4.25547         0.007789      0.269397     -0.622484
C      7.29314     10.40319      3.19606        -0.689233     -0.014901      0.148935
C      6.23373     10.35913      4.25547         0.353260     -0.035840     -0.411059
C      7.29314      0.08601      7.29314        -0.615890     -0.072277     -0.299823
C      6.23373      0.13007      6.23373         0.567974     -0.161759      0.299483
C      3.19606      0.08601      3.19606         0.706955     -0.047175      0.220395
C      4.25547      0.13007      4.25547        -0.471254     -0.260394     -0.442087
C      3.19606     10.40319      7.29314         0.380034      0.002864     -0.170383
C      4.25547     10.35913      6.23373        -0.280991     -0.025838      0.382090
C      3.19606      7.29314     10.40319         0.293652     -0.427217      0.011021
C      4.25547      6.23373     10.35913        -0.854066      0.167082      0.076223
C      7.29314      7.29314      0.08601        -0.412780     -0.376588     -0.020559
C      6.23373      6.23373      0.13007         0.726170      0.083663     -0.011631
C      3.19606      3.19606      0.08601         0.771234      0.318253     -0.018185
C      4.25547      4.25547      0.13007        -0.274306     -0.709424     -0.058327
C      7.29314      3.19606     10.40319        -0.388026      0.453055      0.015576
C      6.23373      4.25547     10.35913         0.436170     -0.547904      0.080539
O     10.43466      3.58206      8.50569         0.084784      0.245538      0.751714
O     10.54374     17.39634      8.50569         0.016396     -0.143368      0.403963
O     10.54374      3.58206     12.47271         0.094034      0.176044     -0.542823
O     10.43466     17.39634     12.47271        -0.031524     -0.083437     -0.341198
O      8.50569     10.43466      3.58206         0.685958     -0.083285      0.222297
O      8.50569     10.54374     17.39634         0.677461     -0.027156     -0.240279
O     12.47271     10.54374      3.58206        -0.709617      0.078793      0.261253
O     12.47271     10.43466     17.39634        -0.509515      0.018956     -0.220957
O      3.58206      8.50569     10.43466         0.178607      0.582874     -0.028107
O     17.39634      8.50569     10.54374        -0.152419      0.524325      0.038513
O      3.58206     12.47271     10.54374         0.081416     -0.408161      0.033985
O     17.39634     12.47271     10.43466        -0.165272     -0.551209     -0.031912
O      3.58206     10.43466      8.50569         0.156420     -0.024891      0.324918
O     17.39634     10.54374      8.50569        -0.090580      0.076694      0.363327
O      3.58206     10.54374     12.47271         0.073168      0.053372     -0.292738
O     17.39634     10.43466     12.47271        -0.064030     -0.021699     -0.221552
O     10.43466      8.50569      3.58206        -0.089362      0.709171      0.186152
O     10.54374      8.50569     17.39634        -0.022683      0.617610     -0.192993
O     10.54374     12.47271      3.58206         0.035147     -0.495429      0.106147
O     10.43466     12.47271     17.39634        -0.020120     -0.362668     -0.031727
O      8.50569      3.58206     10.43466         0.598305      0.144485     -0.043524
O      8.50569     17.39634     10.54374         0.578696     -0.176869      0.031990
O     12.47271      3.58206     10.54374        -0.749211      0.144312      0.022820
O     12.47271     17.39634     10.43466        -0.532775     -0.141054     -0.030590
O     11.90042     11.90042     19.56718        -0.306621     -0.246551      0.266881
O     19.56718     19.56718     19.56718         0.302882      0.311915      0.263120
O     19.56718     11.90042     11.90042         0.314194     -0.302829     -0.243951
O     11.90042     19.56718     11.90042        -0.319272      0.328741     -0.228042
O      9.45224      1.03696      9.45224        -0.020018      0.100142     -0.086700
O      1.03696      9.45224      9.45224         0.042757     -0.016767     -0.096589
O      1.03696      1.03696      1.03696         0.031481      0.094635      0.094855
O      9.45224      9.45224      1.03696        -0.052417     -0.027005      0.122539
Zr     10.48920      2.52580     10.48920        -0.177274     -0.320822      0.128663
Zr     10.48920     18.45260     10.48920         0.080863      0.086945     -0.018510
Zr     10.48920     10.48920      2.52580         0.039835      0.063434     -0.368671
Zr     10.48920     10.48920     18.45260         0.022368     -0.049297      0.269431
Zr      2.52580     10.48920     10.48920        -0.081351     -0.125024     -0.009952
Zr     18.45260     10.48920     10.48920         0.095595     -0.007363     -0.040831
Pd     11.87763      8.54244     10.33413        -0.073908     -0.013009     -0.123990
Pd      7.23028     10.01226     10.43361         0.032027     -0.100873      0.022336
Pd      7.25638     12.36516     11.77314        -0.075567     -0.063539      0.043804
Pd     12.04299     13.36325      7.42725        -0.039153     -0.016099      0.070676
Pd     11.50700      8.23650      7.54884         0.014834     -0.013875      0.038156
Pd      8.80095      7.32022      7.19210        -0.041167     -0.040525      0.022398
Pd     11.64455     10.99419      6.24212        -0.030686      0.093997     -0.002942
Pd     13.80405      9.33949      7.62653        -0.122601     -0.121116      0.072199
Pd      9.50314     11.84376      7.54005         0.043577      0.058985     -0.025123
Pd      7.08683      7.60682     11.83526        -0.067373     -0.130252      0.045882
Pd      6.93668      7.64837      8.85547         0.045319      0.052392      0.044277
Pd      7.50031      9.82905     13.07734        -0.007533     -0.042632      0.088045
Pd     11.40914      5.99423      9.16986        -0.037875      0.035110      0.043678
Pd      9.52122      9.61031      5.98735        -0.041052     -0.016989     -0.016498
Pd      9.33507     14.16073      8.84932        -0.003080     -0.088777      0.110604
Pd     11.48528      6.36893     11.79427        -0.034171      0.077003     -0.021169
Pd      9.68048      9.35272      9.00602         0.204637     -0.068624      0.061545
Pd      9.40843     11.73575     10.21798        -0.136412      0.065899     -0.054869
Pd      9.32096      7.10132     10.31876         0.075334      0.046618      0.019295
Pd      9.16012      7.28524     13.33378        -0.012553      0.059087      0.092383
Pd      9.56362      9.37677     11.66538         0.025507     -0.120215     -0.041429
Pd     11.82520     10.88373      8.86160        -0.066111      0.060120     -0.115804
Pd      7.17818     12.46031      9.00636         0.043615     -0.059425     -0.032872
Pd      7.59125      9.96404      7.87005        -0.029095     -0.034534      0.067095
Pd     13.78376      7.12340      8.93621         0.012881      0.055596     -0.092245
Pd     13.81002      7.84644     12.11611         0.022933     -0.077407      0.075603
Pd      9.46021     11.77152     13.06875         0.041791     -0.052335      0.063481
Pd     14.07190     12.27961      8.76625        -0.000971     -0.006322     -0.042507
Pd     13.50331     10.42150     12.80649        -0.131756      0.000200     -0.108397
Pd     14.08332      9.98919     10.25588        -0.038878      0.073975     -0.017718
Pd     11.54567     11.10816     11.47478         0.090958     -0.117720     -0.002522
Pd     11.62507     13.41434     10.04325        -0.042282      0.020959     -0.004029
Pd     13.77128     12.62987     11.44375        -0.051685     -0.099174      0.031759
Pd     11.70668     13.46160     12.85044        -0.023966     -0.029922      0.061679
Pd     11.63054     11.31381     14.49014        -0.027780      0.035566     -0.079422
Pd     11.55209      8.74395     13.24300        -0.084147     -0.034470     -0.117496
Pd      9.55576      9.62779     14.79989        -0.001009      0.025042      0.006133
Pd      9.40497     14.05544     11.52138        -0.025259      0.007079      0.068444
