152
# total energy = -1092.24368033 eVH     10.35389      5.87395      7.64558         0.834605     -0.761833      1.581232
H     10.62451     15.10445      7.64558        -0.770980      0.887082      1.856719
H     10.62451      5.87395     13.33282         0.494834     -0.233911     -1.805048
H     10.35389     15.10445     13.33282        -0.658871      0.421615     -1.843741
H      7.64558     10.35389      5.87395         0.371263     -0.075384      0.003310
H      7.64558     10.62451     15.10445         0.478888     -0.131944      0.067028
H     13.33282     10.62451      5.87395        -0.484751      0.007927      0.096361
H     13.33282     10.35389     15.10445        -0.536567      0.172960      0.030526
H      5.87395      7.64558     10.35389         0.037814      1.329659     -0.115246
H     15.10445      7.64558     10.62451        -0.022720      0.641091     -0.005833
H      5.87395     13.33282     10.62451        -0.067350     -0.569898      0.002390
H     15.10445     13.33282     10.35389         0.202629     -1.545579      0.176422
H      5.87395     10.35389      7.64558        -0.298059     -0.153326     -0.027627
H     15.10445     10.62451      7.64558         0.271913      0.178873      0.106408
H      5.87395     10.62451     13.33282        -0.172132      0.127703     -0.033975
H     15.10445     10.35389     13.33282         0.046022     -0.208052     -0.085913
H     10.35389      7.64558      5.87395        -0.229713      0.581572     -0.107020
H     10.62451      7.64558     15.10445         0.134749      0.541477      0.302473
H     10.62451     13.33282      5.87395        -0.147875     -0.996611     -0.157136
H     10.35389     13.33282     15.10445        -0.218621     -0.758527      0.268008
H      7.64558      5.87395     10.35389         0.442152     -0.049546     -0.129574
H      7.64558     15.10445     10.62451         0.612501     -0.012365     -0.088612
H     13.33282      5.87395     10.62451        -0.506310      0.017866      0.071451
H     13.33282     15.10445     10.35389        -0.503893      0.179853     -0.035994
H     12.45634     12.45634     19.01126         0.257571      0.250434     -0.243807
H     19.01126     19.01126     19.01126        -0.256862     -0.247531     -0.246691
H     19.01126     12.45634     12.45634        -0.254008      0.267184      0.234652
H     12.45634     19.01126     12.45634         0.257995     -0.267324      0.230852
C     10.35284      5.61067      6.59456        -0.553914     -0.054360     -1.868249
C     10.62556     15.36773      6.59456         0.439885     -0.029351     -1.980735
C     10.62556      5.61067     14.38384        -0.412011     -0.073062      1.837297
C     10.35284     15.36773     14.38384         0.354241      0.228198      1.969156
C      6.59456     10.35284      5.61067        -0.611716     -0.010924     -0.230334
C      6.59456     10.62556     15.36773        -0.887480     -0.058575      0.205304
C     14.38384     10.62556      5.61067         0.727704      0.009949     -0.123837
C     14.38384     10.35284     15.36773         0.791736     -0.011530      0.260577
C      5.61067      6.59456     10.35284        -0.089722     -0.769924      0.135176
C     15.36773      6.59456     10.62556         0.185623     -1.015256     -0.008334
C      5.61067     14.38384     10.62556        -0.261602      0.983405      0.003638
C     15.36773     14.38384     10.35284         0.157722      1.165204      0.000223
C      5.61067     10.35284      6.59456        -0.730166      0.050003     -1.982125
C     15.36773     10.62556      6.59456         0.663814      0.011920     -1.964811
C      5.61067     10.62556     14.38384        -0.796785     -0.001845      1.961176
C     15.36773     10.35284     14.38384         0.605670     -0.092590      1.555586
C     10.35284      6.59456      5.61067         0.034524     -1.536580     -0.806549
C     10.62556      6.59456     15.36773         0.001369     -1.647589      1.032660
C     10.62556     14.38384      5.61067         0.035982      1.730822     -0.875321
C     10.35284     14.38384     15.36773        -0.060290      1.763887      1.007132
C      6.59456      5.61067     10.35284        -0.339323     -0.883384     -0.168757
C      6.59456     15.36773     10.62556        -1.528404      0.701538      0.052185
C     14.38384      5.61067     10.62556         1.450798     -0.670893     -0.015901
C     14.38384     15.36773     10.35284         0.335638      1.039890     -0.027254
C     10.40319      3.19606      7.29314        -0.003964      0.567805     -0.382558
C     10.35913      4.25547      6.23373         0.060605     -0.845127      0.612568
C      0.08601      7.29314      7.29314         0.001197     -0.488637     -0.372614
C      0.13007      6.23373      6.23373        -0.048713      0.856965      0.608308
C      0.08601      3.19606      3.19606        -0.037897      0.552880      0.351237
C      0.13007      4.25547      4.25547        -0.024006     -0.955167     -0.476184
C     10.40319      7.29314      3.19606         0.053318     -0.492198      0.373672
C     10.35913      6.23373      4.25547         0.060293      0.741815     -0.546463
C      7.29314     10.40319      3.19606        -0.345165      0.009992      0.659910
C      6.23373     10.35913      4.25547         0.248026     -0.040891     -0.352922
C      7.29314      0.08601      7.29314        -0.325076      0.014350     -0.435541
C      6.23373      0.13007      6.23373         0.121285      0.006565      0.471867
C      3.19606      0.08601      3.19606         0.306218      0.007405      0.681726
C      4.25547      0.13007      4.25547        -0.257865      0.074511     -0.371880
C      3.19606     10.40319      7.29314         0.332181      0.007513     -0.589685
C      4.25547     10.35913      6.23373        -0.264480      0.023489      0.597329
C      3.19606      7.29314     10.40319         0.253180     -0.430124      0.005339
C      4.25547      6.23373     10.35913        -0.712466      0.339337      0.019010
C      7.29314      7.29314      0.08601        -0.450542     -0.225196      0.000152
C      6.23373      6.23373      0.13007         0.081642      0.304399     -0.032720
C      3.19606      3.19606      0.08601         0.410885      0.241106     -0.017653
C      4.25547      4.25547      0.13007        -0.064280     -0.227065     -0.018391
C      7.29314      3.19606     10.40319        -0.315813      0.564103     -0.016408
C      6.23373      4.25547     10.35913         0.756396     -0.503845      0.041158
O     10.43466      3.58206      8.50569        -0.010900      0.184314      0.376328
O     10.54374     17.39634      8.50569        -0.001846     -0.208300      0.374275
O     10.54374      3.58206     12.47271         0.072791      0.183003     -0.340894
O     10.43466     17.39634     12.47271        -0.106179     -0.209933     -0.350162
O      8.50569     10.43466      3.58206         0.433476     -0.021279      0.096259
O      8.50569     10.54374     17.39634         0.467413      0.053871     -0.138847
O     12.47271     10.54374      3.58206        -0.383100      0.007372      0.074097
O     12.47271     10.43466     17.39634        -0.447557     -0.053757     -0.121613
O      3.58206      8.50569     10.43466         0.143345      0.461472     -0.042949
O     17.39634      8.50569     10.54374        -0.103386      0.440320      0.034790
O      3.58206     12.47271     10.54374         0.082390     -0.415587      0.050578
O     17.39634     12.47271     10.43466        -0.220237     -0.587164      0.002366
O      3.58206     10.43466      8.50569         0.224896     -0.013751      0.535390
O     17.39634     10.54374      8.50569        -0.160356     -0.002404      0.478358
O      3.58206     10.54374     12.47271         0.323798      0.024087     -0.577538
O     17.39634     10.43466     12.47271        -0.221344     -0.005953     -0.605673
O     10.43466      8.50569      3.58206         0.030595      0.540002      0.270084
O     10.54374      8.50569     17.39634         0.070597      0.549665     -0.266559
O     10.54374     12.47271      3.58206         0.003451     -0.619838      0.282262
O     10.43466     12.47271     17.39634        -0.046750     -0.595520     -0.282340
O      8.50569      3.58206     10.43466         0.536986      0.141076     -0.034291
O      8.50569     17.39634     10.54374         0.539517     -0.169910      0.041903
O     12.47271      3.58206     10.54374        -0.533586      0.177006      0.003007
O     12.47271     17.39634     10.43466        -0.515153     -0.173316     -0.022681
O     11.90042     11.90042     19.56718        -0.293881     -0.299239      0.263235
O     19.56718     19.56718     19.56718         0.302300      0.287776      0.272122
O     19.56718     11.90042     11.90042         0.306395     -0.322866     -0.255285
O     11.90042     19.56718     11.90042        -0.295869      0.310973     -0.243927
O      9.45224      1.03696      9.45224        -0.046703      0.036927     -0.082980
O      1.03696      9.45224      9.45224         0.053113     -0.049580     -0.074918
O      1.03696      1.03696      1.03696         0.067541      0.036408      0.109828
O      9.45224      9.45224      1.03696        -0.047677     -0.061892      0.105415
Zr     10.48920      2.52580     10.48920        -0.127969     -0.072601      0.007422
Zr     10.48920     18.45260     10.48920         0.106545      0.116130     -0.051553
Zr     10.48920     10.48920      2.52580        -0.033445      0.038494     -0.254277
Zr     10.48920     10.48920     18.45260        -0.006078     -0.013245      0.195958
Zr      2.52580     10.48920     10.48920        -0.113746     -0.027767     -0.100950
Zr     18.45260     10.48920     10.48920         0.166509      0.062621     -0.089587
Pd     13.27091      8.34091      7.98816        -0.001700     -0.063237     -0.212440
Pd      9.04521     14.37943     11.96941         0.020066     -0.036808     -0.105945
Pd     12.22757     11.19710     10.57688        -0.144207      0.105644     -0.060247
Pd     14.64404     10.76300     11.70784         0.029846     -0.051817     -0.006597
Pd     11.16347      9.21181      6.44384        -0.025012     -0.002733     -0.141676
Pd      6.92845      7.87745      8.49776        -0.004941     -0.002219      0.095684
Ir     10.00419     11.84337     11.89045         0.134943     -0.189218     -0.174526
Ir     13.13912      8.66367     10.62405        -0.066782     -0.150750      0.136459
Ir     12.18168     11.13453      7.91309         0.215632      0.106184      0.044876
Ir      9.11450     14.15734      9.25018         0.271292     -0.061144     -0.051384
Ir     10.84945      9.30809     11.84160         0.216672     -0.122935      0.152119
Ir      8.72977      9.76337      7.91600        -0.118074     -0.150663     -0.141361
Ir     13.60726     12.94359      9.09773        -0.072904     -0.180258      0.063423
Ir     11.48446     13.56107      7.91161        -0.003367      0.110582      0.015304
Ir     14.30827     10.44697      9.22485         0.088921     -0.111358     -0.080113
Ir      9.49374      7.30438     10.58292         0.108368      0.059228      0.045711
Ir      7.84310     12.29880      7.88866         0.108161      0.035031      0.088924
Ir      9.48062      7.41561      8.01875         0.027629      0.091285      0.213472
Ir     11.51868     13.65186     13.19401        -0.070143      0.163628     -0.092165
Ir     11.80667      6.95119     12.05260        -0.114181      0.126938     -0.039404
Ir      9.96892     11.67540      9.22152         0.127290      0.481143      0.213487
Ir     13.23735      8.69999     13.22887        -0.145285     -0.079842     -0.042030
Ir     10.95948      9.20092      9.20269        -0.090985     -0.267365      0.004306
Ir     11.29602     13.73358     10.50520         0.034352     -0.109554     -0.173692
Ir     13.48677     13.17345     11.90262         0.123484     -0.115123     -0.152212
Ir     12.25199     11.22361     13.22253         0.095079     -0.176948      0.009744
Ir      9.99098     11.56448      6.60814        -0.003374      0.051654     -0.042713
Ir     11.69929      6.75656      9.50925         0.043162      0.029747     -0.146385
Ir      7.29306      7.90607     11.91988         0.198042      0.014206      0.031961
Ir      7.81867     12.35925     10.55031         0.112101      0.265029     -0.169714
Ir     11.00727      9.33138     14.38668         0.011368     -0.063991     -0.071745
Ir      7.76590     12.21876     13.11802         0.025680      0.074576      0.067753
Ir      6.56374     10.44031      9.27900        -0.174281      0.156324     -0.205461
Ir      8.67543      9.76733     13.20305        -0.072148     -0.037969      0.076933
Ir      6.44587     10.35095     11.65829        -0.204077     -0.018927      0.253975
Ir      9.26242      7.24797     13.19999         0.048140      0.025963     -0.086109
Ir      9.93416     11.60349     14.44705         0.100119      0.126091      0.075937
Ir      8.66098      9.77244     10.55179         0.292744     -0.284411      0.090422
