36
# total energy = -245.37354234 eVH      4.91422      4.31548      7.50000         0.013258     -0.022114      0.000000
H      4.91422      8.51174      7.50000         0.009686      0.017526      0.000000
H      1.28010      6.41354      7.50000        -0.019827     -0.000516      0.000000
H      6.19438      2.09807      7.50000        -0.013258      0.022114      0.000000
H      6.19438     -2.09819      7.50000        -0.009686     -0.017526      0.000000
H      9.82849      0.00001      7.50000         0.019827      0.000516      0.000000
C      6.73532     -1.16123      7.50000         0.022796      0.031393      0.000000
C      8.74659      0.00008      7.50000        -0.038050     -0.002999      0.000000
C      6.73522      1.16126      7.50000         0.024631     -0.043821      0.000000
C      4.37328      7.57478      7.50000        -0.022796     -0.031393      0.000000
C      2.36201      6.41347      7.50000         0.038050      0.002999      0.000000
C      4.37337      5.25229      7.50000        -0.024631      0.043821      0.000000
C     -0.00002      1.38440      7.50000         0.000230      0.043911     -0.000000
C      9.90969      5.72134      7.50000        -0.038269     -0.022450      0.000000
C      1.19893     -0.69218      7.50000         0.038326     -0.021799      0.000000
C      0.00002     11.44270      7.50000        -0.000230     -0.043911     -0.000000
C      1.19891      0.69221      7.50000         0.038269      0.022450      0.000000
C      9.90967     -5.72137      7.50000        -0.038326      0.021799     -0.000000
N      6.02930     -0.00017      7.50000        -0.009850      0.004831     -0.000000
N      8.09405     -1.19202      7.50000         0.004429     -0.006915      0.000000
N      8.09393      1.19203      7.50000        -0.000404      0.011727     -0.000000
N      5.07929      6.41372      7.50000         0.009850     -0.004831     -0.000000
N      3.01454      7.60557      7.50000        -0.004429      0.006915      0.000000
N      3.01467      5.22152      7.50000         0.000404     -0.011727     -0.000000
O     -0.00001      2.73667      7.50000        -0.000384      0.006393      0.000000
O      8.73857      5.04520      7.50000        -0.004817     -0.003040     -0.000000
O      2.37003     -1.36833      7.50000         0.005576     -0.003146      0.000000
O      0.00001     10.09043      7.50000         0.000384     -0.006393      0.000000
O      2.37002      1.36835      7.50000         0.004817      0.003040     -0.000000
O      8.73856     -5.04522      7.50000        -0.005576      0.003146      0.000000
Ir      4.02274      0.00029      7.50000        -0.012237      0.003809      0.000000
Ir      9.09702     -2.92994      7.50000         0.003032     -0.011736      0.000000
Ir      9.09745      2.92963      7.50000         0.008402      0.009280      0.000000
Ir      7.08585      6.41326      7.50000         0.012237     -0.003809      0.000000
Ir      2.01158      9.34349      7.50000        -0.003032      0.011736      0.000000
Ir      2.01115      3.48392      7.50000        -0.008402     -0.009280      0.000000
