152
# total energy = -1023.26512981 eVH     10.35389      5.87395      7.64558         0.492099      0.085205      0.717694
H     10.62451     15.10445      7.64558        -0.065380     -0.089875      0.760601
H     10.62451      5.87395     13.33282         0.145237      0.137372     -0.625924
H     10.35389     15.10445     13.33282        -0.204582     -0.111272     -0.573143
H      7.64558     10.35389      5.87395         0.306688     -0.020596      0.187580
H      7.64558     10.62451     15.10445         0.714787     -0.251709     -0.105793
H     13.33282     10.62451      5.87395        -0.760753     -0.119448      0.200230
H     13.33282     10.35389     15.10445        -0.476334     -0.116149     -0.044825
H      5.87395      7.64558     10.35389         0.207066      1.020794     -0.221809
H     15.10445      7.64558     10.62451        -0.171792      0.451384     -0.104482
H      5.87395     13.33282     10.62451         0.166771     -0.428817     -0.061256
H     15.10445     13.33282     10.35389        -0.122467     -0.917445      0.033526
H      5.87395     10.35389      7.64558         0.131835      0.101179      0.450393
H     15.10445     10.62451      7.64558         0.098289     -0.007492      1.095628
H      5.87395     10.62451     13.33282         0.173993     -0.029437     -0.378862
H     15.10445     10.35389     13.33282        -0.132140     -0.068597     -0.564994
H     10.35389      7.64558      5.87395         0.077245      0.861741      0.195230
H     10.62451      7.64558     15.10445        -0.000216      0.446201     -0.171000
H     10.62451     13.33282      5.87395        -0.011358     -0.563377      0.213025
H     10.35389     13.33282     15.10445        -0.389599     -0.874402     -0.116489
H      7.64558      5.87395     10.35389         0.453143      0.098486     -0.019296
H      7.64558     15.10445     10.62451         0.819959     -0.280926      0.035715
H     13.33282      5.87395     10.62451        -0.448121      0.184356     -0.062773
H     13.33282     15.10445     10.35389        -0.646129     -0.093035      0.172973
H     12.45634     12.45634     19.01126         0.251383      0.267910     -0.228562
H     19.01126     19.01126     19.01126        -0.252055     -0.233106     -0.259665
H     19.01126     12.45634     12.45634        -0.235903      0.273651      0.237882
H     12.45634     19.01126     12.45634         0.225675     -0.262452      0.248817
C     10.35284      5.61067      6.59456        -0.204895     -0.381273     -0.016576
C     10.62556     15.36773      6.59456         0.060362      0.377390     -1.122810
C     10.62556      5.61067     14.38384        -0.056511     -0.222098      0.791583
C     10.35284     15.36773     14.38384         0.048582      0.846996      0.384368
C      6.59456     10.35284      5.61067        -0.369209     -0.037346     -0.187010
C      6.59456     10.62556     15.36773        -0.910639      0.252871      0.388533
C     14.38384     10.62556      5.61067         0.452388      0.292794     -0.526084
C     14.38384     10.35284     15.36773         0.788499     -0.116071      0.427383
C      5.61067      6.59456     10.35284        -0.317350     -0.620521      0.440512
C     15.36773      6.59456     10.62556         0.160402     -0.507108      0.070400
C      5.61067     14.38384     10.62556        -0.138075      0.402500     -0.021124
C     15.36773     14.38384     10.35284         0.359887     -0.073621     -0.115769
C      5.61067     10.35284      6.59456        -0.260844     -0.018255     -0.781039
C     15.36773     10.62556      6.59456         0.616356     -0.303896     -1.350336
C      5.61067     10.62556     14.38384        -0.366492     -0.005866      0.358169
C     15.36773     10.35284     14.38384         0.510609     -0.160194      1.184502
C     10.35284      6.59456      5.61067        -0.182716     -0.500973     -0.494009
C     10.62556      6.59456     15.36773         0.044615     -0.534654      0.256197
C     10.62556     14.38384      5.61067         0.104159      1.005412     -0.480183
C     10.35284     14.38384     15.36773         0.249653      0.528673      0.561686
C      6.59456      5.61067     10.35284        -0.179303     -0.821396      0.077140
C      6.59456     15.36773     10.62556        -1.452081      0.395924      0.104716
C     14.38384      5.61067     10.62556         0.647405     -0.261659     -0.009498
C     14.38384     15.36773     10.35284        -0.430702      0.681411     -0.336331
C     10.40319      3.19606      7.29314         0.012073      0.858449     -0.308952
C     10.35913      4.25547      6.23373        -0.028444     -0.466529      0.521299
C      0.08601      7.29314      7.29314        -0.006699     -0.292894     -0.491702
C      0.13007      6.23373      6.23373         0.018378      0.115948      0.178434
C      0.08601      3.19606      3.19606        -0.012360      0.624377      0.191352
C      0.13007      4.25547      4.25547        -0.087943     -0.169883     -0.200336
C     10.40319      7.29314      3.19606        -0.004216     -0.690066      0.544016
C     10.35913      6.23373      4.25547        -0.025574      0.311204     -0.608058
C      7.29314     10.40319      3.19606        -0.304734      0.030778      0.939882
C      6.23373     10.35913      4.25547         0.174056      0.037780     -0.125627
C      7.29314      0.08601      7.29314        -0.340634     -0.036691     -0.296535
C      6.23373      0.13007      6.23373         0.357563     -0.052871      0.361205
C      3.19606      0.08601      3.19606         0.551896     -0.030729      0.624398
C      4.25547      0.13007      4.25547        -0.095343     -0.036258     -0.373393
C      3.19606     10.40319      7.29314         0.725892      0.000740     -0.452471
C      4.25547     10.35913      6.23373        -0.165451      0.035900      0.096831
C      3.19606      7.29314     10.40319         0.639076     -1.306776     -0.016727
C      4.25547      6.23373     10.35913        -0.628895      0.884303      0.071201
C      7.29314      7.29314      0.08601        -0.649310     -0.198243     -0.015221
C      6.23373      6.23373      0.13007         0.204437      0.179350      0.013354
C      3.19606      3.19606      0.08601         0.265243      0.307421     -0.020861
C      4.25547      4.25547      0.13007        -0.065544     -0.043129     -0.001579
C      7.29314      3.19606     10.40319        -0.368161      0.929562      0.012551
C      6.23373      4.25547     10.35913         1.069393     -0.006186      0.005978
O     10.43466      3.58206      8.50569        -0.044581      0.041957      0.379367
O     10.54374     17.39634      8.50569        -0.036364     -0.160647      0.569687
O     10.54374      3.58206     12.47271         0.049116      0.065386     -0.316137
O     10.43466     17.39634     12.47271        -0.017268     -0.126828     -0.610159
O      8.50569     10.43466      3.58206         0.323430     -0.033349     -0.034050
O      8.50569     10.54374     17.39634         0.488383      0.043607     -0.148590
O     12.47271     10.54374      3.58206        -0.513210      0.001813      0.110896
O     12.47271     10.43466     17.39634        -0.784666     -0.002722     -0.175584
O      3.58206      8.50569     10.43466         0.127383      1.075079      0.016609
O     17.39634      8.50569     10.54374        -0.032635      0.326580      0.071357
O      3.58206     12.47271     10.54374         0.076504     -0.483337      0.045353
O     17.39634     12.47271     10.43466        -0.166627     -0.844838      0.044080
O      3.58206     10.43466      8.50569        -0.062276     -0.067809      0.355509
O     17.39634     10.54374      8.50569        -0.125565      0.042374      0.450583
O      3.58206     10.54374     12.47271         0.084649     -0.014482     -0.597258
O     17.39634     10.43466     12.47271        -0.196151      0.057650     -0.788782
O     10.43466      8.50569      3.58206         0.038256      0.676163      0.171627
O     10.54374      8.50569     17.39634         0.065398      0.469793     -0.084244
O     10.54374     12.47271      3.58206        -0.008930     -0.716365      0.223385
O     10.43466     12.47271     17.39634         0.033139     -0.884506     -0.243562
O      8.50569      3.58206     10.43466         0.468918      0.041891     -0.036083
O      8.50569     17.39634     10.54374         0.678658     -0.254763     -0.053308
O     12.47271      3.58206     10.54374        -0.456406      0.145451      0.041977
O     12.47271     17.39634     10.43466        -0.523520     -0.005401     -0.009327
O     11.90042     11.90042     19.56718        -0.287468     -0.317562      0.250576
O     19.56718     19.56718     19.56718         0.285675      0.266266      0.307507
O     19.56718     11.90042     11.90042         0.262142     -0.325889     -0.240584
O     11.90042     19.56718     11.90042        -0.271835      0.278959     -0.268507
O      9.45224      1.03696      9.45224        -0.078444      0.042269     -0.073648
O      1.03696      9.45224      9.45224         0.026670     -0.163349     -0.098056
O      1.03696      1.03696      1.03696         0.009166      0.064033      0.173421
O      9.45224      9.45224      1.03696        -0.059292     -0.098959      0.111672
Zr     10.48920      2.52580     10.48920        -0.010047     -0.089762     -0.044019
Zr     10.48920     18.45260     10.48920         0.118749      0.338384      0.006373
Zr     10.48920     10.48920      2.52580         0.015535     -0.020205     -0.387051
Zr     10.48920     10.48920     18.45260        -0.180806     -0.053527      0.402065
Zr      2.52580     10.48920     10.48920        -0.366517      0.251616     -0.057328
Zr     18.45260     10.48920     10.48920         0.263249      0.009414     -0.289828
Pd      8.91210     10.08310     13.33586        -0.116095     -0.087877     -0.026380
Pd     10.63171      9.65079     10.74280         0.249526      0.076197     -0.088829
Pd     13.68429      8.43765     12.58582        -0.000587      0.138778     -0.065182
Pd     10.95933     10.85711     15.00839        -0.016966      0.022465      0.029623
Pd     12.91184     11.08123     13.02292         0.108537     -0.045718      0.061951
Pd     15.08551     11.00717     11.32386        -0.050701     -0.020603      0.000813
Pd      6.58050      7.75759     12.35521         0.070405      0.041169      0.001837
Pd      9.29883      7.25823      9.82877         0.078442      0.067217     -0.036122
Pd      9.23138      7.46829     12.58354        -0.007735     -0.065302      0.027215
Pd     11.63309      7.19423     11.37560         0.016303      0.004182      0.030809
Pd     11.72119      7.94778      8.83265        -0.087706     -0.050248     -0.013162
Pd      7.38082     11.76515     11.74737        -0.076899      0.001520     -0.004872
Pd      9.23763     14.71929      9.46245        -0.028541      0.146398      0.083343
Pd      8.33256     12.51683     14.25048        -0.002467      0.011443      0.010141
Pd     14.10660     14.24422      8.31040         0.025934     -0.030965      0.031533
Pd     11.53976     13.61303      8.75397        -0.083820      0.064699     -0.002802
Pd     14.17059     11.67213      8.90067        -0.056352      0.014744     -0.010309
Pd      8.74375     14.01293     12.09572        -0.027653     -0.023843      0.003765
Pd     12.23389     13.53875     14.15010         0.025446     -0.008933     -0.115713
Pd     11.35715     14.37598     11.45679         0.021610     -0.086822      0.028670
Pd     14.05480     13.56035     12.25139         0.007068      0.026774      0.071177
Pd     12.41526     12.10578     10.72663        -0.107231     -0.211589      0.149588
Pd     12.74625     12.52851      6.69689         0.042560     -0.039550     -0.082480
Pd     13.95287      8.97866      7.93391        -0.012863      0.035752      0.041305
Pd      6.95136      8.48893      8.74509        -0.046997     -0.122953     -0.143774
Pd      5.63903     10.09669     10.61067        -0.112160      0.020666      0.032786
Pd      9.39770      9.42657      8.02796         0.017685     -0.108639      0.038653
Pd      8.54055      6.99523      7.22152        -0.002707     -0.070781     -0.086224
Pd      9.75160     12.10731     10.37274         0.102929      0.029204     -0.012230
Pd     11.64178     10.76818      8.45519         0.099164      0.073631     -0.005210
Pd     11.61412      9.06570      6.40068        -0.007034      0.061604     -0.019666
Pd     10.11016     11.33951      6.32757         0.065354     -0.034998     -0.237904
Ir     11.24766      9.07716     13.14643         0.037201      0.051739     -0.152172
Ir     13.19794      9.58307     10.33140        -0.010232     -0.153003     -0.035673
Ir     10.53493     12.15923     12.77439        -0.080410      0.083777     -0.252712
Ir      7.65291     10.97760      9.21836         0.169868      0.347690     -0.312471
Ir      8.88305     12.63347      8.04989        -0.066503     -0.322249      0.413470
Ir      8.17455      9.29101     10.98623        -0.084922     -0.074703      0.207383
