152
# total energy = -1002.96294488 eVH     10.35389      5.87395      7.64558        -0.041806      0.186939      0.955219
H     10.62451     15.10445      7.64558        -0.055759     -0.121285      1.070400
H     10.62451      5.87395     13.33282         0.012447      0.013810     -1.033368
H     10.35389     15.10445     13.33282        -0.098720     -0.192134     -0.901194
H      7.64558     10.35389      5.87395         0.860305      0.287919     -0.206757
H      7.64558     10.62451     15.10445         0.761257      0.363907      0.033374
H     13.33282     10.62451      5.87395        -0.523105      0.091777      0.046724
H     13.33282     10.35389     15.10445        -0.676400     -0.200431      0.040175
H      5.87395      7.64558     10.35389        -0.266946      2.081510      0.180850
H     15.10445      7.64558     10.62451         0.014001      1.289852     -0.062874
H      5.87395     13.33282     10.62451         0.131711     -0.872286     -0.051124
H     15.10445     13.33282     10.35389         0.144602     -1.198759     -0.358772
H      5.87395     10.35389      7.64558        -0.679603      0.279140      1.266660
H     15.10445     10.62451      7.64558         0.173993      0.698351      1.640768
H      5.87395     10.62451     13.33282        -0.306872      0.498285     -1.252604
H     15.10445     10.35389     13.33282         1.235153     -0.040861     -1.140724
H     10.35389      7.64558      5.87395         0.486411      1.324774     -0.057716
H     10.62451      7.64558     15.10445         0.366420      0.819843     -0.055078
H     10.62451     13.33282      5.87395        -0.328984     -0.823815      0.044246
H     10.35389     13.33282     15.10445        -0.121332     -0.470356     -0.159509
H      7.64558      5.87395     10.35389         0.888456     -0.157256     -0.070427
H      7.64558     15.10445     10.62451         0.549139     -0.188047     -0.040792
H     13.33282      5.87395     10.62451        -1.031116      0.040783      0.302613
H     13.33282     15.10445     10.35389        -0.420860     -0.089531     -0.053425
H     12.45634     12.45634     19.01126         0.266306      0.233677     -0.245661
H     19.01126     19.01126     19.01126        -0.260803     -0.254362     -0.233456
H     19.01126     12.45634     12.45634        -0.257394      0.267730      0.232214
H     12.45634     19.01126     12.45634         0.265983     -0.263294      0.226907
C     10.35284      5.61067      6.59456        -0.122611     -0.986590     -0.988648
C     10.62556     15.36773      6.59456         0.008894      0.432940     -0.939733
C     10.62556      5.61067     14.38384        -0.119759     -0.630299      1.381669
C     10.35284     15.36773     14.38384         0.117358      0.305006      0.938185
C      6.59456     10.35284      5.61067        -1.628288      0.168605     -0.954837
C      6.59456     10.62556     15.36773        -1.038463      0.248202      0.798826
C     14.38384     10.62556      5.61067         1.332388      0.149719     -0.912381
C     14.38384     10.35284     15.36773         1.289562      0.036513      0.801467
C      5.61067      6.59456     10.35284        -0.704858     -1.260639     -0.000872
C     15.36773      6.59456     10.62556         0.540973     -0.460759      0.054218
C      5.61067     14.38384     10.62556        -0.358320      0.967858      0.032741
C     15.36773     14.38384     10.35284         0.347017      1.449554      0.044274
C      5.61067     10.35284      6.59456        -0.345353     -0.019363     -1.543098
C     15.36773     10.62556      6.59456         0.424322     -0.003140     -1.311364
C      5.61067     10.62556     14.38384        -0.302985     -0.043754      1.240123
C     15.36773     10.35284     14.38384         0.073139     -0.048022      1.759618
C     10.35284      6.59456      5.61067         0.008296     -1.194431     -0.670890
C     10.62556      6.59456     15.36773         0.038621     -0.748019      0.602005
C     10.62556     14.38384      5.61067         0.048381      0.710796     -0.495980
C     10.35284     14.38384     15.36773        -0.032601      0.440161      0.389238
C      6.59456      5.61067     10.35284        -0.402551     -1.170396      0.060231
C      6.59456     15.36773     10.62556        -0.677529      0.540385      0.018307
C     14.38384      5.61067     10.62556         0.583422     -0.760347     -0.159654
C     14.38384     15.36773     10.35284         0.390864      0.556944     -0.063547
C     10.40319      3.19606      7.29314        -0.028123      0.321767     -0.975825
C     10.35913      4.25547      6.23373        -0.056708     -0.513451      0.175364
C      0.08601      7.29314      7.29314        -0.020091     -0.611780     -0.326375
C      0.13007      6.23373      6.23373        -0.048495      0.390628      0.395182
C      0.08601      3.19606      3.19606        -0.003764      0.412740      0.519977
C      0.13007      4.25547      4.25547        -0.010382     -0.446492     -0.385581
C     10.40319      7.29314      3.19606        -0.051350     -0.751220      0.251833
C     10.35913      6.23373      4.25547         0.009889      0.267181     -0.632957
C      7.29314     10.40319      3.19606        -0.678372     -0.014121      0.154786
C      6.23373     10.35913      4.25547         0.331638     -0.035154     -0.396180
C      7.29314      0.08601      7.29314        -0.689960     -0.074256     -0.315838
C      6.23373      0.13007      6.23373         0.595137     -0.172158      0.296912
C      3.19606      0.08601      3.19606         0.688740     -0.047331      0.229635
C      4.25547      0.13007      4.25547        -0.477057     -0.264141     -0.414460
C      3.19606     10.40319      7.29314         0.387125      0.004398     -0.160658
C      4.25547     10.35913      6.23373        -0.272769     -0.025230      0.361652
C      3.19606      7.29314     10.40319         0.303319     -0.433086      0.020368
C      4.25547      6.23373     10.35913        -0.868828      0.149666      0.069863
C      7.29314      7.29314      0.08601        -0.413418     -0.373481     -0.020298
C      6.23373      6.23373      0.13007         0.697222      0.085823      0.000799
C      3.19606      3.19606      0.08601         0.779012      0.315551     -0.018665
C      4.25547      4.25547      0.13007        -0.224715     -0.721934     -0.047829
C      7.29314      3.19606     10.40319        -0.418962      0.479058      0.019681
C      6.23373      4.25547     10.35913         0.421644     -0.626421      0.088415
O     10.43466      3.58206      8.50569         0.089690      0.247290      0.791008
O     10.54374     17.39634      8.50569         0.017854     -0.132007      0.388036
O     10.54374      3.58206     12.47271         0.089951      0.171070     -0.535913
O     10.43466     17.39634     12.47271        -0.032296     -0.082009     -0.336992
O      8.50569     10.43466      3.58206         0.684866     -0.080416      0.220632
O      8.50569     10.54374     17.39634         0.717890     -0.032534     -0.238689
O     12.47271     10.54374      3.58206        -0.702261      0.085409      0.255963
O     12.47271     10.43466     17.39634        -0.506919      0.019249     -0.216017
O      3.58206      8.50569     10.43466         0.181842      0.590240     -0.035250
O     17.39634      8.50569     10.54374        -0.151843      0.529731      0.037780
O      3.58206     12.47271     10.54374         0.080902     -0.410297      0.034856
O     17.39634     12.47271     10.43466        -0.160739     -0.570007     -0.034496
O      3.58206     10.43466      8.50569         0.155297     -0.025357      0.320012
O     17.39634     10.54374      8.50569        -0.070646      0.079962      0.353923
O      3.58206     10.54374     12.47271         0.080557      0.054006     -0.310367
O     17.39634     10.43466     12.47271        -0.064422     -0.023034     -0.227166
O     10.43466      8.50569      3.58206        -0.089149      0.711325      0.190828
O     10.54374      8.50569     17.39634        -0.034755      0.645221     -0.196097
O     10.54374     12.47271      3.58206         0.039719     -0.505053      0.111780
O     10.43466     12.47271     17.39634        -0.024235     -0.334854     -0.007883
O      8.50569      3.58206     10.43466         0.615095      0.146936     -0.045149
O      8.50569     17.39634     10.54374         0.575084     -0.175569      0.028514
O     12.47271      3.58206     10.54374        -0.746531      0.126333      0.020092
O     12.47271     17.39634     10.43466        -0.541500     -0.137975     -0.033110
O     11.90042     11.90042     19.56718        -0.309190     -0.243467      0.261232
O     19.56718     19.56718     19.56718         0.302135      0.312214      0.255611
O     19.56718     11.90042     11.90042         0.314501     -0.302844     -0.246818
O     11.90042     19.56718     11.90042        -0.321711      0.328598     -0.232071
O      9.45224      1.03696      9.45224        -0.022798      0.101362     -0.094750
O      1.03696      9.45224      9.45224         0.040383     -0.017612     -0.103379
O      1.03696      1.03696      1.03696         0.030805      0.097528      0.090288
O      9.45224      9.45224      1.03696        -0.055287     -0.029195      0.116465
Zr     10.48920      2.52580     10.48920        -0.178351     -0.330345      0.167296
Zr     10.48920     18.45260     10.48920         0.087504      0.086341     -0.000965
Zr     10.48920     10.48920      2.52580         0.051271      0.060579     -0.360073
Zr     10.48920     10.48920     18.45260         0.040607     -0.040041      0.280713
Zr      2.52580     10.48920     10.48920        -0.080953     -0.130714      0.005860
Zr     18.45260     10.48920     10.48920         0.097795     -0.003786     -0.025250
Pd     11.90126      8.51796     10.29820         0.147847      0.004872     -0.012322
Pd      7.27938      9.92161     10.46401        -0.065216     -0.016009      0.097510
Pd      7.24990     12.26007     11.80581        -0.056039     -0.078151      0.032289
Pd     12.03211     13.37880      7.50594         0.028224      0.086170     -0.021775
Pd     11.52941      8.19728      7.54866        -0.061643     -0.029656     -0.080831
Pd      8.80541      7.33609      7.16249        -0.042426     -0.011227      0.017026
Pd     11.64393     11.06211      6.26348         0.066727     -0.023861     -0.177013
Pd     13.83483      9.28337      7.63914         0.022568      0.070984     -0.013879
Pd      9.53037     11.86037      7.58514        -0.042709      0.005120     -0.057885
Pd      7.05284      7.47839     11.90008         0.045745     -0.037438      0.040571
Pd      7.00518      7.63809      8.88195        -0.087970      0.014897      0.074201
Pd      7.49395      9.71293     13.14000         0.042101     -0.098413      0.078006
Pd     11.36477      5.93972      9.20144         0.027066      0.046167      0.010896
Pd      9.54786      9.62748      5.98862         0.020064      0.057124      0.058696
Pd      9.34219     14.16235      8.91961         0.000250      0.024553      0.057390
Pd     11.46535      6.39770     11.80244        -0.023603      0.014942      0.065389
Pd      9.74010      9.35794      9.00756        -0.050011      0.070841     -0.025254
Pd      9.40912     11.73375     10.25528        -0.045287     -0.067684     -0.019669
Pd      9.32936      7.11813     10.35279        -0.059119     -0.057746     -0.012682
Pd      9.13691      7.32340     13.43935        -0.090465     -0.046250      0.098775
Pd      9.56708      9.34085     11.67905        -0.020473      0.018126      0.001169
Pd     11.88205     10.88798      8.85279        -0.029882      0.050397     -0.064006
Pd      7.21636     12.43048      9.02340        -0.112306     -0.032193      0.028926
Pd      7.61842      9.96601      7.89209         0.017115     -0.064680     -0.018811
Pd     13.74260      7.04485      8.88183         0.075320     -0.056952      0.042266
Pd     13.80072      7.80759     12.12658         0.002790      0.024400      0.052802
Pd      9.48059     11.69562     13.11270        -0.075467      0.049536     -0.127791
Pd     14.14296     12.28320      8.73687        -0.094513     -0.021458      0.027563
Pd     13.50421     10.39119     12.78314        -0.021673     -0.107127      0.027490
Pd     14.11245      9.99096     10.24496        -0.059963      0.005414     -0.006599
Pd     11.55289     11.05377     11.45351        -0.014490      0.020878      0.006850
Pd     11.61854     13.40666     10.08865        -0.040494     -0.008803      0.059786
Pd     13.77913     12.59318     11.43184        -0.047502     -0.060985     -0.032804
Pd     11.72035     13.41876     12.84996        -0.049496     -0.052331      0.027741
Pd     11.66614     11.30546     14.49634        -0.009127     -0.023161     -0.021932
Pd     11.53327      8.74451     13.24898        -0.027604     -0.005605     -0.009150
Pd      9.57585      9.65489     14.89251         0.049181      0.009227      0.003898
Pd      9.37300     14.02126     11.60110        -0.024817     -0.063559      0.056341
