26
# total energy = -169.64391440 eVH      0.37653      6.90735      7.50000        -0.044617     -0.020658     -0.000000
H      2.82527      2.05932      7.50000        -0.043352      0.011404     -0.000000
H      6.20179      6.72304      7.50000        -0.034186     -0.006877     -0.000000
H      8.93745     -1.55250      7.50000         0.044617      0.020658     -0.000000
H      6.48871      3.29552      7.50000         0.043352     -0.011404     -0.000000
H      3.11220     -1.36819      7.50000         0.034186      0.006877     -0.000000
C      8.50790      4.15598      7.50000         0.047349      0.086369     -0.000000
C      1.45298     -0.08444      7.50000         0.013723      0.060736      0.000000
C      8.70691     -3.71508      7.50000         0.117652      0.039542     -0.000000
C      0.80608      1.19887      7.50000        -0.047349     -0.086369     -0.000000
C      7.86101      5.43929      7.50000        -0.013723     -0.060736      0.000000
C      0.60708      9.06993      7.50000        -0.117652     -0.039542      0.000000
C      8.20659     -2.36322      7.50000        -0.020775     -0.053794     -0.000000
C      7.54745      2.98306      7.50000        -0.059304      0.076140      0.000000
C      2.85714     -0.31629      7.50000        -0.031882      0.031091      0.000000
C      1.10739      7.71807      7.50000         0.020775      0.053794     -0.000000
C      1.76653      2.37179      7.50000         0.059304     -0.076140     -0.000000
C      6.45684      5.67114      7.50000         0.031882     -0.031091     -0.000000
O      6.96138     -2.07950      7.50000        -0.028289      0.034969     -0.000000
O      7.80665      1.78104      7.50000         0.045431     -0.084354     -0.000000
O      3.87397      0.50916      7.50000        -0.010305      0.017526     -0.000000
O      2.35260      7.43434      7.50000         0.028289     -0.034969     -0.000000
O      1.50733      3.57381      7.50000        -0.045431      0.084354     -0.000000
O      5.44002      4.84569      7.50000         0.010305     -0.017526     -0.000000
Au      5.61532     -0.57732      7.50000         0.017053      0.089301     -0.000000
Au      3.69866      5.93217      7.50000        -0.017053     -0.089301     -0.000000
