35
# total energy = -230.85149264 eVC      4.82873      9.03469      7.49840        -0.004423      0.012308      0.000000
C      7.18357      2.97761      7.49840         0.004423     -0.012308     -0.000000
C      2.97761      4.82873      7.49840        -0.012308     -0.004423      0.000000
C      9.03469      7.18357      7.49840         0.012308      0.004423     -0.000000
C      7.18357      9.03469      7.49840         0.004423      0.012308     -0.000000
C      4.82873      2.97761      7.49840        -0.004423     -0.012308      0.000000
C      9.03469      4.82873      7.49840         0.012308     -0.004423     -0.000000
C      2.97761      7.18357      7.49840        -0.012308      0.004423      0.000000
C      8.46519      8.46519      7.49840        -0.009753     -0.009753      0.000000
C      3.54711      3.54711      7.49840         0.009753      0.009753      0.000000
C      3.54711      8.46519      7.49840         0.009753     -0.009753      0.000000
C      8.46519      3.54711      7.49840        -0.009753      0.009753      0.000000
C     11.28713      0.72517      7.49840         0.002697     -0.002697     -0.000000
C      0.72517     11.28713      7.49840        -0.002697      0.002697      0.000000
C     11.28713     11.28713      7.49840         0.002697      0.002697      0.000000
C      0.72517      0.72517      7.49840        -0.002697     -0.002697      0.000000
N      6.00615      8.35204      7.49840         0.000000     -0.019651      0.000000
N      6.00615      3.66026      7.49840         0.000000      0.019651      0.000000
N      3.66026      6.00615      7.49840         0.019651     -0.000000      0.000000
N      8.35204      6.00615      7.49840        -0.019651     -0.000000      0.000000
O      4.70929     10.37451      7.49840         0.012628     -0.017497     -0.000000
O      7.30301      1.63779      7.49840        -0.012628      0.017497     -0.000000
O      1.63779      4.70929      7.49840         0.017497      0.012628      0.000000
O     10.37451      7.30301      7.49840        -0.017497     -0.012628     -0.000000
O      7.30301     10.37451      7.49840        -0.012628     -0.017497      0.000000
O      4.70929      1.63779      7.49840         0.012628      0.017497      0.000000
O     10.37451      4.70929      7.49840        -0.017497      0.012628     -0.000000
O      1.63779      7.30301      7.49840         0.017497     -0.012628      0.000000
Au      9.90754      2.10476      7.49840         0.002329     -0.002329      0.000000
Au      2.10476      9.90754      7.49840        -0.002329      0.002329      0.000000
Au      9.90754      9.90754      7.49840         0.002329      0.002329      0.000000
Au      2.10476      2.10476      7.49840        -0.002329     -0.002329      0.000000
Au      6.00615      6.00615      7.49840         0.000000      0.000000      0.000000
Au      6.00615     -0.00000      7.49840         0.000000      0.000000      0.000000
Au      0.00000      6.00615      7.49840         0.000000      0.000000      0.000000
