152
# total energy = -1004.06543954 eVH     10.35389      5.87395      7.64558        -0.274108      0.259481      0.560771
H     10.62451     15.10445      7.64558        -0.303992     -0.130650      0.728117
H     10.62451      5.87395     13.33282         0.473282      0.027487     -0.945910
H     10.35389     15.10445     13.33282         0.066599     -0.186105     -0.494196
H      7.64558     10.35389      5.87395         0.453077      0.061053      0.075420
H      7.64558     10.62451     15.10445         0.751785      0.579659     -0.063510
H     13.33282     10.62451      5.87395        -0.449033     -0.174122      0.336793
H     13.33282     10.35389     15.10445        -0.677675     -0.125952     -0.042241
H      5.87395      7.64558     10.35389         0.097043      1.560653      0.099308
H     15.10445      7.64558     10.62451        -0.080088      0.534528      0.085754
H      5.87395     13.33282     10.62451         0.204093     -0.782796      0.093896
H     15.10445     13.33282     10.35389         0.150031     -1.325787     -0.178766
H      5.87395     10.35389      7.64558         0.068131      0.093985      0.618560
H     15.10445     10.62451      7.64558        -0.208856      0.831143      1.330345
H      5.87395     10.62451     13.33282        -0.041280      0.461155     -1.400733
H     15.10445     10.35389     13.33282         0.235541     -0.079347     -0.863369
H     10.35389      7.64558      5.87395         0.282985      1.402711      0.188749
H     10.62451      7.64558     15.10445         0.589840      0.943645     -0.046712
H     10.62451     13.33282      5.87395        -0.599557     -0.790887      0.188040
H     10.35389     13.33282     15.10445        -0.079948     -0.490855     -0.253007
H      7.64558      5.87395     10.35389         1.189033     -0.278089     -0.339355
H      7.64558     15.10445     10.62451         0.681057     -0.202691     -0.007734
H     13.33282      5.87395     10.62451        -0.692629      0.096350      0.547510
H     13.33282     15.10445     10.35389        -0.316632     -0.067731     -0.073293
H     12.45634     12.45634     19.01126         0.268293      0.243868     -0.236476
H     19.01126     19.01126     19.01126        -0.264936     -0.274368     -0.214520
H     19.01126     12.45634     12.45634        -0.270111      0.255683      0.234305
H     12.45634     19.01126     12.45634         0.258290     -0.279977      0.226668
C     10.35284      5.61067      6.59456        -0.091997     -0.830943     -0.719189
C     10.62556     15.36773      6.59456         0.145491      0.367971     -0.243725
C     10.62556      5.61067     14.38384        -0.079471     -0.711438      0.641155
C     10.35284     15.36773     14.38384        -0.008708      0.222173      0.498524
C      6.59456     10.35284      5.61067        -0.698320      0.079641     -0.497083
C      6.59456     10.62556     15.36773        -0.895120      0.204713      0.788780
C     14.38384     10.62556      5.61067         0.999643      0.040285     -1.015693
C     14.38384     10.35284     15.36773         1.009913     -0.052782      0.571259
C      5.61067      6.59456     10.35284        -0.788154     -0.716231     -0.474188
C     15.36773      6.59456     10.62556         0.735906      0.039111     -0.186114
C      5.61067     14.38384     10.62556        -0.255890      0.960281     -0.042013
C     15.36773     14.38384     10.35284         0.341475      1.445830     -0.140700
C      5.61067     10.35284      6.59456        -0.324581     -0.022703     -0.755973
C     15.36773     10.62556      6.59456         0.397202     -0.409514     -0.916195
C      5.61067     10.62556     14.38384        -0.357048     -0.067805      1.125427
C     15.36773     10.35284     14.38384         0.256724      0.006151      1.058323
C     10.35284      6.59456      5.61067        -0.010972     -1.097676     -0.308734
C     10.62556      6.59456     15.36773        -0.003871     -0.838703      0.658268
C     10.62556     14.38384      5.61067         0.091146      0.911792     -0.497776
C     10.35284     14.38384     15.36773        -0.023142      0.625805      0.321198
C      6.59456      5.61067     10.35284        -0.727407     -1.141955      0.149189
C      6.59456     15.36773     10.62556        -0.726843      0.164228      0.071241
C     14.38384      5.61067     10.62556        -0.039533     -0.511380     -0.345361
C     14.38384     15.36773     10.35284         0.043514      0.579408     -0.052184
C     10.40319      3.19606      7.29314        -0.001144      0.498532     -0.820412
C     10.35913      4.25547      6.23373        -0.014517     -0.469124      0.120354
C      0.08601      7.29314      7.29314        -0.037223     -1.023659     -0.271325
C      0.13007      6.23373      6.23373        -0.033367      0.420275      0.491002
C      0.08601      3.19606      3.19606         0.031475      1.126733      0.227328
C      0.13007      4.25547      4.25547         0.002799     -0.438775     -0.428800
C     10.40319      7.29314      3.19606        -0.021375     -0.637719      0.194442
C     10.35913      6.23373      4.25547        -0.049049      0.129554     -0.670356
C      7.29314     10.40319      3.19606        -0.403539      0.016303      0.226349
C      6.23373     10.35913      4.25547         0.196805      0.042536     -0.141373
C      7.29314      0.08601      7.29314        -1.200631     -0.076678     -0.409009
C      6.23373      0.13007      6.23373         0.660130     -0.188040      0.347754
C      3.19606      0.08601      3.19606         1.192384     -0.021743      0.251005
C      4.25547      0.13007      4.25547        -0.613588     -0.116992     -0.209948
C      3.19606     10.40319      7.29314         0.501441      0.029958     -0.256626
C      4.25547     10.35913      6.23373        -0.231665      0.038962      0.158730
C      3.19606      7.29314     10.40319         0.272627     -0.515940      0.056494
C      4.25547      6.23373     10.35913        -0.888220     -0.037363      0.149403
C      7.29314      7.29314      0.08601        -0.451912     -0.430474     -0.020619
C      6.23373      6.23373      0.13007         0.480667      0.272700      0.072243
C      3.19606      3.19606      0.08601         0.609460      0.469870     -0.021009
C      4.25547      4.25547      0.13007        -0.144136     -0.824423     -0.082820
C      7.29314      3.19606     10.40319        -0.348571      0.440948      0.051468
C      6.23373      4.25547     10.35913         0.534197     -0.678038      0.177327
O     10.43466      3.58206      8.50569         0.053350      0.249285      0.730811
O     10.54374     17.39634      8.50569         0.053532     -0.035458      0.321103
O     10.54374      3.58206     12.47271         0.003996     -0.027475     -0.264781
O     10.43466     17.39634     12.47271        -0.030689     -0.088667     -0.352501
O      8.50569     10.43466      3.58206         0.569962     -0.044536      0.152454
O      8.50569     10.54374     17.39634         0.877948     -0.082892     -0.167921
O     12.47271     10.54374      3.58206        -0.874881      0.147019      0.132539
O     12.47271     10.43466     17.39634        -0.573700      0.032283     -0.189851
O      3.58206      8.50569     10.43466         0.186142      0.622482     -0.044616
O     17.39634      8.50569     10.54374        -0.148612      0.614118      0.021447
O      3.58206     12.47271     10.54374         0.122601     -0.564879      0.043509
O     17.39634     12.47271     10.43466        -0.180287     -0.558597     -0.054508
O      3.58206     10.43466      8.50569         0.105446     -0.040635      0.384981
O     17.39634     10.54374      8.50569         0.058555      0.100597      0.329464
O      3.58206     10.54374     12.47271        -0.021419      0.029171     -0.230132
O     17.39634     10.43466     12.47271        -0.118591     -0.029919     -0.395146
O     10.43466      8.50569      3.58206        -0.045665      0.669363      0.187390
O     10.54374      8.50569     17.39634        -0.085097      0.802681     -0.148980
O     10.54374     12.47271      3.58206         0.138208     -0.914855      0.183171
O     10.43466     12.47271     17.39634        -0.003088     -0.397897     -0.036489
O      8.50569      3.58206     10.43466         0.547753      0.145210     -0.050645
O      8.50569     17.39634     10.54374         0.578286     -0.166833      0.018568
O     12.47271      3.58206     10.54374        -0.706250      0.124277      0.025016
O     12.47271     17.39634     10.43466        -0.509026     -0.129060     -0.031442
O     11.90042     11.90042     19.56718        -0.317672     -0.268474      0.251455
O     19.56718     19.56718     19.56718         0.292683      0.325187      0.211428
O     19.56718     11.90042     11.90042         0.342999     -0.287381     -0.248243
O     11.90042     19.56718     11.90042        -0.285257      0.349276     -0.217166
O      9.45224      1.03696      9.45224        -0.044406      0.101204     -0.114886
O      1.03696      9.45224      9.45224         0.070503     -0.030073     -0.101169
O      1.03696      1.03696      1.03696         0.057856      0.081756      0.113114
O      9.45224      9.45224      1.03696        -0.032030     -0.022460      0.104561
Zr     10.48920      2.52580     10.48920        -0.093606     -0.227223      0.171428
Zr     10.48920     18.45260     10.48920         0.027329      0.057087      0.055422
Zr     10.48920     10.48920      2.52580        -0.300067     -0.188443     -0.418769
Zr     10.48920     10.48920     18.45260         0.187658      0.029659      0.312360
Zr      2.52580     10.48920     10.48920        -0.129847     -0.059116     -0.068282
Zr     18.45260     10.48920     10.48920         0.103975     -0.039088      0.124835
Pd     12.62131      8.21305      9.74129        -0.006844     -0.008181      0.000013
Pd      6.88995      9.60624     10.51171        -0.026118      0.000655     -0.017310
Pd      6.89506     11.78739     11.97149         0.035475     -0.007731     -0.006915
Pd     12.26659     13.58236      7.31248        -0.007284     -0.038354      0.053151
Pd     12.14648      7.94443      7.05928        -0.091584     -0.035879      0.081777
Pd      8.58723      7.43515      6.98169        -0.090113      0.021377     -0.007986
Pd     11.64099     11.54258      5.69298        -0.088860     -0.013343     -0.010081
Pd     14.52338      8.84284      7.85809        -0.022924     -0.058278     -0.034067
Pd      9.92952     11.80165      7.81091         0.021224      0.052996      0.030882
Pd      7.15770      7.10534     11.98058        -0.074655      0.072655      0.018002
Pd      6.44900      7.83825      8.45652         0.011855     -0.048453      0.065044
Pd      7.26340      9.21052     13.48679         0.040201      0.009277      0.025769
Pd     11.28806      6.05291      9.22073         0.074315     -0.023722      0.006010
Pd     10.03102      9.61742      6.25578        -0.108479      0.013641     -0.032539
Pd      9.11243     13.85678      9.29282        -0.011308      0.070131     -0.015031
Pd     10.82689      7.04958     11.56995         0.051071      0.015166     -0.027785
Pd     10.34297      9.11559      8.88621        -0.074017     -0.049231      0.046281
Pd      9.23956     11.41050     10.41066         0.023135      0.064417     -0.019705
Pd      8.82471      7.24118      9.67271         0.030948     -0.107721      0.074289
Pd      9.00729      7.23589     13.79042        -0.036464     -0.013092      0.079631
Pd      9.17995      9.06638     11.60892         0.041128      0.013190     -0.036650
Pd     12.39139     10.61716      8.12035        -0.020432     -0.028336     -0.001320
Pd      6.94694     12.08562      9.27432         0.012301     -0.039431     -0.043236
Pd      8.06215      9.95307      8.14130        -0.022212     -0.035210     -0.029223
Pd     13.95260      6.32331      8.48737         0.001480     -0.028858     -0.030729
Pd     13.31136      7.91567     12.23165        -0.044082      0.140200      0.029405
Pd      9.17209     11.24777     13.20965         0.057622      0.034823     -0.014787
Pd     14.12532     12.47476      8.78388         0.037667     -0.010552     -0.035517
Pd     13.22634     10.56265     12.84407         0.039668      0.105193      0.070154
Pd     14.24077     10.20232     10.29126         0.048326      0.048074     -0.007631
Pd     11.57050     10.31408     10.91279        -0.044536      0.016254     -0.057072
Pd     11.54356     12.89210      9.75128        -0.032709     -0.019684      0.046290
Pd     13.70889     12.66674     11.45502        -0.022775      0.101275      0.004641
Pd     11.27034     12.58852     12.31814        -0.029912     -0.017172      0.068039
Pd     11.43571     11.39028     14.69346        -0.027244      0.044758      0.029028
Pd     11.15483      9.03574     13.37049        -0.051017      0.067089     -0.063549
Pd      9.48649      9.62128     15.31304        -0.041267     -0.047263     -0.014996
Pd      8.89367     13.63905     11.95640         0.026586      0.026924      0.003744
