152
# total energy = -1023.27458080 eVH     10.35389      5.87395      7.64558         0.500393      0.083360      0.719463
H     10.62451     15.10445      7.64558        -0.098131     -0.060466      0.805821
H     10.62451      5.87395     13.33282         0.147879      0.128538     -0.639009
H     10.35389     15.10445     13.33282        -0.172658     -0.124013     -0.539057
H      7.64558     10.35389      5.87395         0.308628     -0.022329      0.189036
H      7.64558     10.62451     15.10445         0.651608     -0.213154     -0.130195
H     13.33282     10.62451      5.87395        -0.780986     -0.167057      0.204111
H     13.33282     10.35389     15.10445        -0.442562     -0.102287     -0.052343
H      5.87395      7.64558     10.35389         0.208466      1.068807     -0.256647
H     15.10445      7.64558     10.62451        -0.176021      0.470296     -0.119673
H      5.87395     13.33282     10.62451         0.161498     -0.419243     -0.061491
H     15.10445     13.33282     10.35389        -0.131578     -0.918938      0.021679
H      5.87395     10.35389      7.64558         0.131828      0.098165      0.459431
H     15.10445     10.62451      7.64558         0.096850     -0.021880      1.060270
H      5.87395     10.62451     13.33282         0.188825     -0.027685     -0.380547
H     15.10445     10.35389     13.33282        -0.120843     -0.059515     -0.545611
H     10.35389      7.64558      5.87395         0.131585      0.860312      0.185713
H     10.62451      7.64558     15.10445        -0.008349      0.515132     -0.162210
H     10.62451     13.33282      5.87395        -0.007988     -0.571144      0.212414
H     10.35389     13.33282     15.10445        -0.289255     -0.889224     -0.132086
H      7.64558      5.87395     10.35389         0.442856      0.096858     -0.040518
H      7.64558     15.10445     10.62451         0.833616     -0.281829      0.026627
H     13.33282      5.87395     10.62451        -0.449693      0.187480     -0.066381
H     13.33282     15.10445     10.35389        -0.658985     -0.100187      0.170562
H     12.45634     12.45634     19.01126         0.252230      0.264170     -0.230269
H     19.01126     19.01126     19.01126        -0.252506     -0.230814     -0.261532
H     19.01126     12.45634     12.45634        -0.234502      0.272248      0.241071
H     12.45634     19.01126     12.45634         0.224792     -0.263697      0.249754
C     10.35284      5.61067      6.59456        -0.200139     -0.355438     -0.027614
C     10.62556     15.36773      6.59456         0.067307      0.369504     -1.218578
C     10.62556      5.61067     14.38384        -0.059450     -0.254585      0.817639
C     10.35284     15.36773     14.38384         0.039916      0.868620      0.406546
C      6.59456     10.35284      5.61067        -0.362877     -0.037785     -0.176766
C      6.59456     10.62556     15.36773        -0.851429      0.199255      0.371715
C     14.38384     10.62556      5.61067         0.486868      0.305287     -0.505560
C     14.38384     10.35284     15.36773         0.774995     -0.109013      0.443966
C      5.61067      6.59456     10.35284        -0.320393     -0.630468      0.435248
C     15.36773      6.59456     10.62556         0.164994     -0.511487      0.082564
C      5.61067     14.38384     10.62556        -0.149997      0.388147     -0.024480
C     15.36773     14.38384     10.35284         0.384173     -0.041604     -0.091999
C      5.61067     10.35284      6.59456        -0.261769     -0.023254     -0.786471
C     15.36773     10.62556      6.59456         0.611640     -0.279176     -1.342458
C      5.61067     10.62556     14.38384        -0.338789     -0.004325      0.414565
C     15.36773     10.35284     14.38384         0.496500     -0.163176      1.133188
C     10.35284      6.59456      5.61067        -0.171985     -0.461026     -0.445133
C     10.62556      6.59456     15.36773         0.055775     -0.620418      0.273596
C     10.62556     14.38384      5.61067         0.090086      0.988899     -0.498917
C     10.35284     14.38384     15.36773         0.262512      0.594780      0.526827
C      6.59456      5.61067     10.35284        -0.124758     -0.827551      0.077248
C      6.59456     15.36773     10.62556        -1.515410      0.414853      0.121003
C     14.38384      5.61067     10.62556         0.640380     -0.273207     -0.015921
C     14.38384     15.36773     10.35284        -0.427368      0.682051     -0.315108
C     10.40319      3.19606      7.29314         0.007373      0.826931     -0.295330
C     10.35913      4.25547      6.23373        -0.049258     -0.482439      0.489456
C      0.08601      7.29314      7.29314        -0.008431     -0.257897     -0.522770
C      0.13007      6.23373      6.23373         0.027929      0.142658      0.203426
C      0.08601      3.19606      3.19606        -0.012731      0.593361      0.195421
C      0.13007      4.25547      4.25547        -0.093794     -0.176479     -0.187889
C     10.40319      7.29314      3.19606        -0.008279     -0.638568      0.554535
C     10.35913      6.23373      4.25547        -0.041951      0.262025     -0.604749
C      7.29314     10.40319      3.19606        -0.298512      0.027817      0.942256
C      6.23373     10.35913      4.25547         0.166622      0.033107     -0.125421
C      7.29314      0.08601      7.29314        -0.316454     -0.035378     -0.300032
C      6.23373      0.13007      6.23373         0.330218     -0.052262      0.322721
C      3.19606      0.08601      3.19606         0.521288     -0.030731      0.691761
C      4.25547      0.13007      4.25547        -0.094220     -0.028952     -0.366440
C      3.19606     10.40319      7.29314         0.702138      0.001915     -0.415770
C      4.25547     10.35913      6.23373        -0.156724      0.029216      0.082976
C      3.19606      7.29314     10.40319         0.675066     -1.294324     -0.012657
C      4.25547      6.23373     10.35913        -0.656174      0.903527      0.074255
C      7.29314      7.29314      0.08601        -0.699698     -0.182534     -0.015696
C      6.23373      6.23373      0.13007         0.214777      0.194471      0.021154
C      3.19606      3.19606      0.08601         0.270522      0.302176     -0.019579
C      4.25547      4.25547      0.13007        -0.068163     -0.041780     -0.003487
C      7.29314      3.19606     10.40319        -0.365650      1.007405      0.016413
C      6.23373      4.25547     10.35913         1.076298     -0.017186      0.009922
O     10.43466      3.58206      8.50569        -0.042915      0.050434      0.384155
O     10.54374     17.39634      8.50569        -0.042897     -0.172355      0.590625
O     10.54374      3.58206     12.47271         0.049576      0.076050     -0.326188
O     10.43466     17.39634     12.47271        -0.010884     -0.137157     -0.625167
O      8.50569     10.43466      3.58206         0.330237     -0.032819     -0.032410
O      8.50569     10.54374     17.39634         0.477601      0.043914     -0.146825
O     12.47271     10.54374      3.58206        -0.477890      0.008670      0.088032
O     12.47271     10.43466     17.39634        -0.787161      0.000925     -0.187808
O      3.58206      8.50569     10.43466         0.109573      1.047644      0.014468
O     17.39634      8.50569     10.54374        -0.025437      0.305755      0.072946
O      3.58206     12.47271     10.54374         0.073481     -0.470307      0.050044
O     17.39634     12.47271     10.43466        -0.176705     -0.895582      0.057851
O      3.58206     10.43466      8.50569        -0.060456     -0.068113      0.335397
O     17.39634     10.54374      8.50569        -0.128861      0.040595      0.459447
O      3.58206     10.54374     12.47271         0.093053     -0.021777     -0.640461
O     17.39634     10.43466     12.47271        -0.187782      0.056046     -0.788182
O     10.43466      8.50569      3.58206         0.028929      0.641572      0.161627
O     10.54374      8.50569     17.39634         0.062469      0.437432     -0.080050
O     10.54374     12.47271      3.58206        -0.005894     -0.695353      0.221318
O     10.43466     12.47271     17.39634         0.031651     -0.845813     -0.239641
O      8.50569      3.58206     10.43466         0.444165      0.022139     -0.040468
O      8.50569     17.39634     10.54374         0.703465     -0.262629     -0.065736
O     12.47271      3.58206     10.54374        -0.460505      0.150246      0.041436
O     12.47271     17.39634     10.43466        -0.555581     -0.019108     -0.004795
O     11.90042     11.90042     19.56718        -0.293519     -0.313763      0.255648
O     19.56718     19.56718     19.56718         0.283651      0.260908      0.309928
O     19.56718     11.90042     11.90042         0.259161     -0.322832     -0.246484
O     11.90042     19.56718     11.90042        -0.272425      0.277214     -0.267577
O      9.45224      1.03696      9.45224        -0.081724      0.041551     -0.072212
O      1.03696      9.45224      9.45224         0.013590     -0.170908     -0.098879
O      1.03696      1.03696      1.03696         0.003536      0.068959      0.176278
O      9.45224      9.45224      1.03696        -0.062409     -0.104248      0.104900
Zr     10.48920      2.52580     10.48920         0.001224     -0.097988     -0.044202
Zr     10.48920     18.45260     10.48920         0.139060      0.364743      0.011253
Zr     10.48920     10.48920      2.52580         0.011574     -0.016418     -0.369835
Zr     10.48920     10.48920     18.45260        -0.152445     -0.050297      0.375103
Zr      2.52580     10.48920     10.48920        -0.343465      0.242488     -0.114040
Zr     18.45260     10.48920     10.48920         0.277117     -0.011250     -0.281411
Pd      8.96867     10.11009     13.31296        -0.058707     -0.019381      0.005989
Pd     10.67434      9.69624     10.84406         0.011577     -0.011756     -0.068865
Pd     13.71390      8.37526     12.58301        -0.030810      0.024710      0.010919
Pd     10.99074     10.90334     14.95702        -0.011323     -0.031540      0.057658
Pd     12.91075     11.00548     12.96114        -0.019853      0.069655      0.029499
Pd     15.10889     11.08998     11.31391        -0.013686     -0.057202      0.004040
Pd      6.58451      7.72661     12.33081         0.006357      0.028011      0.004533
Pd      9.31241      7.28348      9.86358        -0.015542     -0.037903     -0.026550
Pd      9.21301      7.46048     12.62996         0.003944      0.010810     -0.030818
Pd     11.61970      7.14394     11.42441         0.014732      0.040882     -0.029316
Pd     11.70551      7.98217      8.91232         0.014009     -0.034300     -0.040750
Pd      7.38404     11.77141     11.76633         0.008422     -0.014015     -0.018352
Pd      9.21778     14.78756      9.45011         0.005457     -0.080405     -0.008473
Pd      8.41107     12.54810     14.24162        -0.070974     -0.015302      0.025028
Pd     14.09497     14.24562      8.31636        -0.003204     -0.003744     -0.006701
Pd     11.50263     13.64664      8.72814         0.055872     -0.043075      0.013000
Pd     14.16547     11.68693      8.89663         0.006121     -0.011816     -0.006829
Pd      8.73084     14.02718     12.05578         0.017848     -0.007688      0.012632
Pd     12.26842     13.48335     14.13000        -0.022512      0.039814      0.026622
Pd     11.35407     14.42308     11.44372        -0.003920     -0.046202      0.006626
Pd     14.08717     13.58928     12.27242        -0.017467     -0.019537     -0.023696
Pd     12.42873     12.16156     10.72841        -0.043028     -0.022367     -0.001277
Pd     12.75362     12.50660      6.68838        -0.012638      0.023395      0.026827
Pd     13.93625      8.99986      8.00917         0.026356     -0.023196     -0.073676
Pd      6.93623      8.49092      8.75067         0.011371      0.004063      0.006417
Pd      5.62365     10.10754     10.69111         0.025378     -0.013581     -0.050312
Pd      9.39902      9.44553      8.11420        -0.016259     -0.009983     -0.061878
Pd      8.56102      7.00846      7.23644        -0.013794     -0.002382     -0.001576
Pd      9.76538     12.13394     10.33045         0.025554     -0.018843      0.116942
Pd     11.64300     10.80223      8.50556         0.017909     -0.002355      0.000940
Pd     11.58847      9.09992      6.47877         0.015116     -0.029519     -0.071160
Pd     10.07720     11.35865      6.37149         0.043314     -0.041785     -0.063469
Ir     11.27671      9.00081     13.20835         0.004609      0.022538     -0.052233
Ir     13.21570      9.61100     10.39572        -0.040268      0.017283     -0.018818
Ir     10.55319     12.20513     12.71906         0.014408     -0.033803     -0.047607
Ir      7.61216     10.99693      9.23829         0.024512     -0.007255     -0.014480
Ir      8.81009     12.64929      8.07983         0.002209      0.056990      0.001638
Ir      8.18555      9.29873     10.99986        -0.055221     -0.004648      0.011486
