152
# total energy = -1060.15343789 eVH     10.35389      5.87395      7.64558        -0.318819      0.100775      1.088128
H     10.62451     15.10445      7.64558         0.079938     -0.069812      0.898154
H     10.62451      5.87395     13.33282        -0.270073      0.072766     -0.783665
H     10.35389     15.10445     13.33282         0.093137     -0.303874     -0.823298
H      7.64558     10.35389      5.87395         0.895013     -0.202289      0.206494
H      7.64558     10.62451     15.10445         0.316179     -0.028293     -0.061389
H     13.33282     10.62451      5.87395        -0.886143      0.219839      0.222234
H     13.33282     10.35389     15.10445        -0.282124     -0.029752     -0.060540
H      5.87395      7.64558     10.35389         0.093002      0.421098     -0.012084
H     15.10445      7.64558     10.62451        -0.042258      0.436800     -0.031277
H      5.87395     13.33282     10.62451        -0.016886     -0.969889      0.078320
H     15.10445     13.33282     10.35389        -0.082247     -0.328284      0.001585
H      5.87395     10.35389      7.64558         0.318350      0.062061      0.370801
H     15.10445     10.62451      7.64558        -0.119896     -0.158744      0.667478
H      5.87395     10.62451     13.33282        -0.062863      0.452649     -0.600473
H     15.10445     10.35389     13.33282         0.227555     -0.638076     -0.875571
H     10.35389      7.64558      5.87395        -0.021799      0.500138      0.345681
H     10.62451      7.64558     15.10445         0.333343      0.788006     -0.004711
H     10.62451     13.33282      5.87395         0.153694     -0.568968      0.201686
H     10.35389     13.33282     15.10445         0.032563     -0.289430     -0.166673
H      7.64558      5.87395     10.35389         0.369956      0.112873      0.063860
H      7.64558     15.10445     10.62451         0.388872     -0.128312      0.178441
H     13.33282      5.87395     10.62451        -0.306980      0.137434     -0.014086
H     13.33282     15.10445     10.35389        -0.659185     -0.106110      0.136032
H     12.45634     12.45634     19.01126         0.259134      0.272187     -0.226218
H     19.01126     19.01126     19.01126        -0.247896     -0.267588     -0.244307
H     19.01126     12.45634     12.45634        -0.249057      0.271412      0.237005
H     12.45634     19.01126     12.45634         0.289959     -0.235428      0.235369
C     10.35284      5.61067      6.59456         0.402238     -0.419739     -1.357855
C     10.62556     15.36773      6.59456        -0.167922      0.608566     -0.660074
C     10.62556      5.61067     14.38384         0.365834     -0.275778      0.777686
C     10.35284     15.36773     14.38384        -0.205967      0.218818      1.027916
C      6.59456     10.35284      5.61067        -1.396404      0.032208     -0.229049
C      6.59456     10.62556     15.36773        -0.667751      0.065421      0.357387
C     14.38384     10.62556      5.61067         1.307460     -0.186956     -0.629189
C     14.38384     10.35284     15.36773         0.318001     -0.132098      0.351905
C      5.61067      6.59456     10.35284        -0.274299     -0.673526     -0.030348
C     15.36773      6.59456     10.62556         0.409373     -0.858154      0.029207
C      5.61067     14.38384     10.62556        -0.148922      1.196590     -0.220111
C     15.36773     14.38384     10.35284         0.505971      0.707323     -0.036576
C      5.61067     10.35284      6.59456        -0.373148     -0.102556     -0.778666
C     15.36773     10.62556      6.59456         0.402827      0.106176     -0.679997
C      5.61067     10.62556     14.38384        -0.409858     -0.163421      1.219728
C     15.36773     10.35284     14.38384         0.233017      0.224643      1.415590
C     10.35284      6.59456      5.61067        -0.069242     -0.748288     -0.548367
C     10.62556      6.59456     15.36773        -0.142296     -0.980894      0.376773
C     10.62556     14.38384      5.61067        -0.493499      0.379813     -0.738586
C     10.35284     14.38384     15.36773        -0.173828      0.740582      0.494208
C      6.59456      5.61067     10.35284        -0.563169     -0.337281      0.002994
C      6.59456     15.36773     10.62556        -0.366932      0.446888      0.065039
C     14.38384      5.61067     10.62556         0.433826     -0.309952      0.008378
C     14.38384     15.36773     10.35284         1.131628      0.487835     -0.078080
C     10.40319      3.19606      7.29314        -0.007318      0.780978     -0.335698
C     10.35913      4.25547      6.23373         0.023899     -0.379274      0.290644
C      0.08601      7.29314      7.29314        -0.018526     -0.379676     -0.505512
C      0.13007      6.23373      6.23373        -0.047072      0.881041      0.092803
C      0.08601      3.19606      3.19606        -0.007098      0.695781      0.260661
C      0.13007      4.25547      4.25547         0.045625     -0.266294     -0.547070
C     10.40319      7.29314      3.19606        -0.064196     -1.116628      0.619055
C     10.35913      6.23373      4.25547        -0.046404      0.346953     -0.203086
C      7.29314     10.40319      3.19606        -1.094478     -0.055173      0.201363
C      6.23373     10.35913      4.25547         0.380457      0.101292     -0.521803
C      7.29314      0.08601      7.29314        -0.476648      0.029024     -0.442099
C      6.23373      0.13007      6.23373         0.179876      0.121810      0.120689
C      3.19606      0.08601      3.19606         0.702605      0.023363      0.170870
C      4.25547      0.13007      4.25547        -0.172022     -0.050261     -0.366433
C      3.19606     10.40319      7.29314         0.371013     -0.026707     -0.951198
C      4.25547     10.35913      6.23373        -0.129281     -0.054984      0.114590
C      3.19606      7.29314     10.40319         0.614570     -0.398816      0.002476
C      4.25547      6.23373     10.35913        -0.115106      0.177459      0.011534
C      7.29314      7.29314      0.08601        -0.428525     -0.294646     -0.015276
C      6.23373      6.23373      0.13007         0.149264      0.154214     -0.061519
C      3.19606      3.19606      0.08601         0.293258      0.491450     -0.025029
C      4.25547      4.25547      0.13007        -0.402507     -0.239736     -0.031185
C      7.29314      3.19606     10.40319        -0.283338      0.593869     -0.009681
C      6.23373      4.25547     10.35913         0.016829     -0.093095      0.015219
O     10.43466      3.58206      8.50569        -0.026410      0.073850      0.303660
O     10.54374     17.39634      8.50569         0.064139     -0.124027      0.593079
O     10.54374      3.58206     12.47271         0.029156      0.101433     -0.398144
O     10.43466     17.39634     12.47271         0.094300     -0.062547     -0.432967
O      8.50569     10.43466      3.58206         0.735807     -0.072491      0.016043
O      8.50569     10.54374     17.39634         0.533909      0.062094     -0.103901
O     12.47271     10.54374      3.58206        -0.657198      0.112295      0.211369
O     12.47271     10.43466     17.39634        -0.281061      0.004098      0.035595
O      3.58206      8.50569     10.43466         0.033804      0.443996     -0.063290
O     17.39634      8.50569     10.54374        -0.054310      0.446505      0.056549
O      3.58206     12.47271     10.54374         0.103767     -0.587750      0.004180
O     17.39634     12.47271     10.43466        -0.182397     -0.741325     -0.049065
O      3.58206     10.43466      8.50569         0.208473     -0.061347      0.806425
O     17.39634     10.54374      8.50569        -0.072761      0.071317      0.491201
O      3.58206     10.54374     12.47271        -0.004522     -0.004980     -0.261217
O     17.39634     10.43466     12.47271         0.034903     -0.010226     -0.232956
O     10.43466      8.50569      3.58206        -0.107198      0.533054     -0.100919
O     10.54374      8.50569     17.39634         0.059931      0.510370     -0.084795
O     10.54374     12.47271      3.58206         0.102933     -0.638943      0.129795
O     10.43466     12.47271     17.39634        -0.065340     -0.692967     -0.277812
O      8.50569      3.58206     10.43466         0.396727      0.023151     -0.046139
O      8.50569     17.39634     10.54374         0.640672     -0.154555      0.046299
O     12.47271      3.58206     10.54374        -0.516654      0.121374      0.028728
O     12.47271     17.39634     10.43466        -0.624141     -0.124972      0.040771
O     11.90042     11.90042     19.56718        -0.278435     -0.304077      0.222988
O     19.56718     19.56718     19.56718         0.309681      0.322217      0.298349
O     19.56718     11.90042     11.90042         0.283777     -0.325444     -0.235287
O     11.90042     19.56718     11.90042        -0.314494      0.229408     -0.201039
O      9.45224      1.03696      9.45224        -0.074845      0.087621     -0.078909
O      1.03696      9.45224      9.45224         0.101336     -0.109468     -0.060800
O      1.03696      1.03696      1.03696         0.079218      0.053897      0.098708
O      9.45224      9.45224      1.03696        -0.058420     -0.125733      0.136634
Zr     10.48920      2.52580     10.48920         0.043289     -0.094404      0.121412
Zr     10.48920     18.45260     10.48920        -0.181948      0.247289     -0.360442
Zr     10.48920     10.48920      2.52580         0.112002      0.357933     -0.346281
Zr     10.48920     10.48920     18.45260        -0.080063     -0.260349      0.232721
Zr      2.52580     10.48920     10.48920        -0.240214      0.130659      0.244032
Zr     18.45260     10.48920     10.48920         0.196144     -0.137755     -0.021465
Pd      9.36076     14.29969      9.31516         0.003581      0.030444     -0.033830
Pd      8.59013     13.64346     13.04198         0.015287     -0.020430      0.010631
Pd     12.02379     14.40478      8.74365         0.011058     -0.008891      0.018031
Pd     12.75925     12.87767     10.68060        -0.053834      0.008540      0.054397
Pd     12.11960      7.19188     12.67633         0.004718     -0.001972     -0.008815
Pd     11.16000     14.90057     11.45507        -0.023488      0.021332     -0.022085
Pd     10.03757     12.55083     11.08581        -0.055817      0.046693     -0.017018
Pd     13.47898     12.15365      7.98325         0.017171      0.007949      0.002754
Pd     11.47938     11.54172      6.10822         0.009450      0.012728     -0.004650
Pd      7.94182      8.38128      7.52387         0.002678     -0.031432     -0.003024
Pd      8.72022     11.75636      6.84453        -0.007665      0.005837     -0.014927
Pd     10.32341      9.45290      8.14937        -0.026379     -0.003590      0.019896
Pd      8.49802     14.46374      6.79280        -0.012208      0.006611     -0.022095
Pd     12.39783      9.01627      6.56667        -0.005090      0.032524      0.033694
Pd      9.71711      9.60916      5.57311         0.004350      0.006159      0.000358
Pd      6.81610      9.45314     12.13996         0.027013      0.010997      0.001025
Pd     12.17758      6.74417      7.95340         0.014808     -0.001639      0.003201
Pd      5.91378     10.48392      9.69233        -0.004505     -0.012762      0.004852
Pd      7.54993      7.24047     13.40883         0.012359     -0.001056     -0.019303
Ir     11.73519      9.77562     13.06634        -0.010190     -0.013981      0.011943
Ir     13.55180      9.05656     11.47521        -0.020906      0.001630      0.010219
Ir      9.42528      8.86582     14.01061        -0.020426     -0.046527      0.010844
Ir     10.50594     11.01709     14.88887         0.005544     -0.031378      0.066253
Ir      7.26965     12.01495     11.33873         0.023839     -0.009417      0.030025
Ir     14.64943     10.91274     10.15238        -0.009679      0.018020      0.028053
Ir     12.16246     10.57197      9.67829         0.004676     -0.021227     -0.009121
Ir      8.74781     10.99912     12.99058        -0.009704      0.081367     -0.041656
Ir     10.10573      9.91677     11.17339         0.001200      0.006690     -0.029714
Ir     13.73624     11.41871     12.49046        -0.031081     -0.003237      0.041665
Ir     11.58950     12.35392     13.08967        -0.077050     -0.019517      0.013297
Ir      8.49870     11.09742      9.33387        -0.011005     -0.008309      0.008107
Ir     11.59206      8.02681     10.14336         0.025788      0.018024      0.017676
Ir      7.21649     13.03087      8.65590         0.018039      0.013139      0.015144
Ir      9.54772      6.96385      9.24003         0.005067     -0.022253     -0.020174
Ir      8.05356      8.76367     10.05859        -0.017383      0.027002     -0.004047
Ir     10.72101     12.12329      8.50309         0.000943      0.002064     -0.013104
Ir      9.51319      7.57240     11.75596         0.004622      0.001900      0.017486
Ir     13.66635      8.79902      8.84105         0.014382      0.007412      0.029696
