152
# total energy = -1110.38661262 eVH     10.35389      5.87395      7.64558        -0.372245     -0.136137      1.109713
H     10.62451     15.10445      7.64558         0.341849      0.079320      0.929126
H     10.62451      5.87395     13.33282        -0.320960     -0.688092     -1.363749
H     10.35389     15.10445     13.33282        -0.600069      0.421675     -0.327089
H      7.64558     10.35389      5.87395         0.551092     -0.525760     -0.095192
H      7.64558     10.62451     15.10445         0.379913     -0.237505      0.044537
H     13.33282     10.62451      5.87395        -0.565308      0.638507     -0.040234
H     13.33282     10.35389     15.10445        -0.527007      0.398116      0.159000
H      5.87395      7.64558     10.35389         0.148950      0.545853      0.031116
H     15.10445      7.64558     10.62451         0.431141      0.990890      0.273317
H      5.87395     13.33282     10.62451        -0.222540     -0.492644      0.362137
H     15.10445     13.33282     10.35389         0.027955     -0.301934     -0.380900
H      5.87395     10.35389      7.64558        -0.093030     -0.392030      1.465940
H     15.10445     10.62451      7.64558         0.215833      0.492407      1.312531
H      5.87395     10.62451     13.33282        -0.203233     -0.364333     -1.191688
H     15.10445     10.35389     13.33282         0.597722      0.970562     -1.530171
H     10.35389      7.64558      5.87395        -0.567658      0.517753     -0.177772
H     10.62451      7.64558     15.10445        -0.137563      0.474211      0.170013
H     10.62451     13.33282      5.87395         0.876965     -1.350579     -0.316991
H     10.35389     13.33282     15.10445         0.240257     -0.561476     -0.098657
H      7.64558      5.87395     10.35389         0.717321      0.167928     -0.164269
H      7.64558     15.10445     10.62451         1.978869      0.762328      0.216509
H     13.33282      5.87395     10.62451        -2.674936     -0.934565     -0.489335
H     13.33282     15.10445     10.35389        -0.877181     -0.053354     -0.251634
H     12.45634     12.45634     19.01126         0.272035      0.257631     -0.226989
H     19.01126     19.01126     19.01126        -0.266756     -0.255206     -0.238245
H     19.01126     12.45634     12.45634        -0.283533      0.281147      0.185941
H     12.45634     19.01126     12.45634         0.256232     -0.251177      0.236130
C     10.35284      5.61067      6.59456         0.078530     -0.496528     -1.218762
C     10.62556     15.36773      6.59456         0.182604      0.756146     -0.815312
C     10.62556      5.61067     14.38384         0.184253     -0.302885      1.796780
C     10.35284     15.36773     14.38384         0.093784      0.385533      1.802109
C      6.59456     10.35284      5.61067        -1.134491     -0.110506     -0.879304
C      6.59456     10.62556     15.36773        -0.699888     -0.098776      0.780257
C     14.38384     10.62556      5.61067         0.853246     -0.110418     -0.997157
C     14.38384     10.35284     15.36773         1.191041      0.167488      1.103787
C      5.61067      6.59456     10.35284        -0.670287     -0.882980     -0.183530
C     15.36773      6.59456     10.62556         1.989545     -0.288349     -0.185326
C      5.61067     14.38384     10.62556        -1.570244     -0.009899     -0.136468
C     15.36773     14.38384     10.35284         0.485156      0.080519      0.007558
C      5.61067     10.35284      6.59456        -0.275702      0.203771     -1.348642
C     15.36773     10.62556      6.59456         0.288944     -0.250108     -0.989681
C      5.61067     10.62556     14.38384        -0.256583      0.433395      1.453981
C     15.36773     10.35284     14.38384         0.027292     -0.466050      1.939395
C     10.35284      6.59456      5.61067        -0.170728     -0.868546     -0.690875
C     10.62556      6.59456     15.36773        -0.114335     -0.739443      1.050538
C     10.62556     14.38384      5.61067        -0.501671      2.001721     -0.765226
C     10.35284     14.38384     15.36773        -0.268697      1.389483      0.495584
C      6.59456      5.61067     10.35284        -0.978265     -0.411459      0.090235
C      6.59456     15.36773     10.62556        -1.276204      0.370365     -0.331863
C     14.38384      5.61067     10.62556         1.281040     -1.280854      0.197568
C     14.38384     15.36773     10.35284         0.449433      0.312610      0.079806
C     10.40319      3.19606      7.29314         0.001478      0.306359     -0.106037
C     10.35913      4.25547      6.23373         0.141117     -0.554979      0.015971
C      0.08601      7.29314      7.29314        -0.053195     -0.289639     -0.422775
C      0.13007      6.23373      6.23373        -0.122478      0.686628      0.024491
C      0.08601      3.19606      3.19606        -0.106401      1.649418      0.169173
C      0.13007      4.25547      4.25547        -0.090970     -0.398351     -1.220260
C     10.40319      7.29314      3.19606         0.015868     -0.439978      0.123664
C     10.35913      6.23373      4.25547         0.262654      0.084021     -0.521788
C      7.29314     10.40319      3.19606        -1.683465      0.008821      0.324666
C      6.23373     10.35913      4.25547         0.662776      0.078958     -0.616347
C      7.29314      0.08601      7.29314        -0.408281     -0.014024     -0.311699
C      6.23373      0.13007      6.23373         0.702813     -0.056993      0.255392
C      3.19606      0.08601      3.19606         0.659119     -0.017615      0.182754
C      4.25547      0.13007      4.25547        -0.365183     -0.080376     -0.548437
C      3.19606     10.40319      7.29314         0.359609      0.021010     -0.317489
C      4.25547     10.35913      6.23373        -0.733682      0.072302      0.365304
C      3.19606      7.29314     10.40319         0.289852     -0.207317     -0.006270
C      4.25547      6.23373     10.35913         0.043910      0.638791      0.092015
C      7.29314      7.29314      0.08601        -0.717955     -0.609650     -0.023646
C      6.23373      6.23373      0.13007         0.889535      1.125792     -0.069137
C      3.19606      3.19606      0.08601         0.819883      0.509639      0.005477
C      4.25547      4.25547      0.13007        -0.328221     -1.756673     -0.128176
C      7.29314      3.19606     10.40319        -0.327295      0.272826     -0.003760
C      6.23373      4.25547     10.35913         0.507952     -0.025002      0.230422
O     10.43466      3.58206      8.50569        -0.048380      0.184600      0.258793
O     10.54374     17.39634      8.50569         0.042208     -0.234969      0.485977
O     10.54374      3.58206     12.47271         0.083866     -0.070064     -0.028810
O     10.43466     17.39634     12.47271        -0.023065     -0.141821     -0.271925
O      8.50569     10.43466      3.58206         0.989389      0.187009      0.381649
O      8.50569     10.54374     17.39634         0.576154      0.084280     -0.228953
O     12.47271     10.54374      3.58206        -0.418148     -0.040226      0.184605
O     12.47271     10.43466     17.39634        -0.511618     -0.069036     -0.194586
O      3.58206      8.50569     10.43466         0.183525      0.427125     -0.029159
O     17.39634      8.50569     10.54374        -0.230585      0.713817      0.045464
O      3.58206     12.47271     10.54374         0.161648     -0.679573      0.025887
O     17.39634     12.47271     10.43466        -0.186087     -0.477487     -0.010926
O      3.58206     10.43466      8.50569         0.227379     -0.061009      0.404015
O     17.39634     10.54374      8.50569        -0.171351      0.036861      0.411625
O      3.58206     10.54374     12.47271         0.147583      0.020956     -0.304076
O     17.39634     10.43466     12.47271         0.076697     -0.051163     -0.075764
O     10.43466      8.50569      3.58206         0.002678      0.273659      0.182787
O     10.54374      8.50569     17.39634         0.070236      0.431302     -0.176768
O     10.54374     12.47271      3.58206        -0.221908     -0.972799      0.336871
O     10.43466     12.47271     17.39634        -0.083111     -0.450156     -0.244791
O      8.50569      3.58206     10.43466         0.491790      0.196685     -0.010753
O      8.50569     17.39634     10.54374         0.664672     -0.201303      0.022317
O     12.47271      3.58206     10.54374        -0.744591      0.279074      0.037419
O     12.47271     17.39634     10.43466        -0.434914     -0.204689     -0.043681
O     11.90042     11.90042     19.56718        -0.346751     -0.307766      0.260308
O     19.56718     19.56718     19.56718         0.324733      0.311468      0.283561
O     19.56718     11.90042     11.90042         0.275757     -0.275377     -0.139112
O     11.90042     19.56718     11.90042        -0.305593      0.284265     -0.233259
O      9.45224      1.03696      9.45224        -0.060090      0.072221     -0.046141
O      1.03696      9.45224      9.45224         0.035833     -0.074965     -0.070805
O      1.03696      1.03696      1.03696         0.061483      0.145707      0.098650
O      9.45224      9.45224      1.03696        -0.139344     -0.095584      0.098798
Zr     10.48920      2.52580     10.48920         0.159489     -0.170544     -0.165044
Zr     10.48920     18.45260     10.48920        -0.100034      0.184118     -0.048303
Zr     10.48920     10.48920      2.52580         0.338213     -0.310084     -0.201208
Zr     10.48920     10.48920     18.45260         0.011197     -0.088045      0.203102
Zr      2.52580     10.48920     10.48920        -0.069865      0.176017     -0.051841
Zr     18.45260     10.48920     10.48920         0.143876     -0.130406     -0.250360
Ir     12.04287     12.48483     10.45702        -0.019530      0.009512      0.016459
Ir     11.20598      7.41471     10.26812         0.005166      0.007279     -0.018585
Ir      8.84781      7.35850     11.54201         0.008718      0.000192     -0.014208
Ir      7.47168     11.65040      7.65893        -0.008119     -0.000067     -0.002240
Ir     11.59450     12.07963      7.11708         0.000851     -0.009482     -0.009394
Ir     13.77476      8.99136      7.53599         0.013027     -0.002231     -0.015467
Ir     12.47716     13.95337      8.41230         0.002706      0.011919     -0.007241
Ir      9.73353     11.25811      5.54920         0.002762     -0.006379     -0.007925
Ir      9.07692     13.45296      7.07628        -0.002121     -0.008352      0.002572
Ir      9.27265      9.66839      7.51026        -0.001608      0.007316     -0.011611
Ir     13.28338      7.03872     11.95626        -0.001379     -0.005106      0.003019
Ir     13.61671      7.03922      9.11234         0.009859      0.004240     -0.009750
Ir     11.04258      7.59463     12.81927        -0.004261      0.003348     -0.018949
Ir     13.60243     11.56443      8.75321         0.012946     -0.001044     -0.007943
Ir     11.50389      9.63367      6.22600        -0.004260     -0.011426     -0.006336
Ir      7.15712      9.15744      8.92767         0.001925     -0.007331     -0.006784
Ir     14.05914     11.43627     11.65217         0.008777      0.004063     -0.000587
Ir     11.65886      9.84041      8.87317        -0.008407     -0.020182     -0.006138
Ir      9.43956      9.50648     10.23390         0.005684     -0.009191     -0.005609
Ir     13.87381      9.40950     10.17522         0.010596     -0.003765     -0.004659
Ir     13.82734      9.16197     12.89095         0.008937      0.001023     -0.008998
Ir     11.69769      9.76095     11.55007        -0.002224     -0.008213     -0.006927
Ir      9.91385     11.73605      8.96727         0.005184     -0.006408     -0.003919
Ir      9.09234      7.43341      8.79327         0.014943      0.002905     -0.017868
Ir     11.60407      7.54366      7.74358         0.027192     -0.017122     -0.014370
Ir      9.25499      9.47567     13.00955         0.003387     -0.006069     -0.009090
Ir      7.51067     13.90369      8.99420        -0.000535      0.000061      0.001638
Ir     10.87245     14.10636     11.95098         0.003834     -0.017510     -0.010410
Ir     10.11306     14.15254      9.51805        -0.001889     -0.006314      0.001573
Ir      9.79201     11.68539     11.72554         0.012411     -0.004721     -0.008293
Ir      7.58937     11.56910     10.20980        -0.001909     -0.004379     -0.010034
Ir      8.34935     13.74151     11.58394        -0.003087      0.002732     -0.003418
Ir      7.52623     11.55478     12.82497        -0.011035     -0.007482      0.005375
Ir      9.77416     11.60381     14.34354         0.002181     -0.009829      0.004751
Ir     13.47250     13.88406     12.18852        -0.009231     -0.006993     -0.002181
Ir     11.99028     12.04798     13.08041         0.005909      0.000750     -0.005425
Ir     11.58129      9.79201     14.19023         0.001649     -0.010587     -0.018946
Ir      7.15382      9.35815     11.48786         0.006651     -0.008986     -0.009697
