9
# total energy = -63.86658261 eVH      2.56573      2.83525      0.00000        -0.451328      0.105318     -0.000000
H      0.00477      6.61964      0.00000         0.451328     -0.105318     -0.000000
C      1.23122      8.06576     -0.00000         0.019700     -0.172114      0.000000
C      1.33929      1.38913      0.00000        -0.019700      0.172114     -0.000000
C     -0.01415      8.82324     -0.00000        -0.126496      0.328020     -0.000000
C      0.01415      0.70184     -0.00000         0.126496     -0.328020      0.000000
N      1.56932      2.71290     -0.00000         0.323240     -0.230394      0.000000
N      1.00118      6.74199     -0.00000        -0.323240      0.230394     -0.000000
Ir      1.28525      4.72744      0.00000         0.000000      0.000000     -0.000000
