152
# total energy = -1005.99954024 eVH     10.35389      5.87395      7.64558         0.259320      0.035370      0.637543
H     10.62451     15.10445      7.64558        -0.107615     -0.141922      0.516205
H     10.62451      5.87395     13.33282         0.485249      0.121235     -0.583875
H     10.35389     15.10445     13.33282         0.076333     -0.183778     -0.553458
H      7.64558     10.35389      5.87395         0.371811      0.078334      0.166110
H      7.64558     10.62451     15.10445         0.694981      0.471531     -0.040430
H     13.33282     10.62451      5.87395        -0.532435      0.420590      0.075456
H     13.33282     10.35389     15.10445        -0.803085     -0.094461      0.008364
H      5.87395      7.64558     10.35389         0.242008      0.704529     -0.383172
H     15.10445      7.64558     10.62451        -0.095050      0.481102      0.283939
H      5.87395     13.33282     10.62451         0.159271     -0.696914     -0.157598
H     15.10445     13.33282     10.35389        -0.009409     -1.028329     -0.327565
H      5.87395     10.35389      7.64558         0.255378      0.277411      0.721936
H     15.10445     10.62451      7.64558        -0.108613      0.404980      0.761326
H      5.87395     10.62451     13.33282         0.136141      0.328585     -0.692295
H     15.10445     10.35389     13.33282        -0.052302     -0.072726     -0.690424
H     10.35389      7.64558      5.87395         0.389341      1.051664     -0.008856
H     10.62451      7.64558     15.10445         0.536230      0.536915     -0.120126
H     10.62451     13.33282      5.87395        -0.398059     -0.844267      0.187199
H     10.35389     13.33282     15.10445        -0.044583     -0.433505     -0.216758
H      7.64558      5.87395     10.35389         0.849123      0.094742     -0.290871
H      7.64558     15.10445     10.62451         0.836371     -0.197531      0.010017
H     13.33282      5.87395     10.62451        -0.803015      0.195372      0.587361
H     13.33282     15.10445     10.35389        -0.444033     -0.110895     -0.131673
H     12.45634     12.45634     19.01126         0.235393      0.270356     -0.239842
H     19.01126     19.01126     19.01126        -0.262394     -0.240628     -0.261145
H     19.01126     12.45634     12.45634        -0.266813      0.268722      0.218636
H     12.45634     19.01126     12.45634         0.232102     -0.255661      0.278476
C     10.35284      5.61067      6.59456        -0.433155     -0.728425      0.193672
C     10.62556     15.36773      6.59456         0.062492      0.367507     -0.298299
C     10.62556      5.61067     14.38384        -0.332490     -0.363221     -0.304102
C     10.35284     15.36773     14.38384        -0.008846      0.335024      0.541738
C      6.59456     10.35284      5.61067        -0.224982     -0.003069     -0.384978
C      6.59456     10.62556     15.36773        -0.261968     -0.219644      0.807872
C     14.38384     10.62556      5.61067        -0.267283     -0.400199     -0.517697
C     14.38384     10.35284     15.36773         0.976696     -0.056210      0.254658
C      5.61067      6.59456     10.35284        -0.539772      0.000815      0.158918
C     15.36773      6.59456     10.62556         0.526626      0.023868     -0.250899
C      5.61067     14.38384     10.62556        -0.337990      0.973590      0.077270
C     15.36773     14.38384     10.35284         0.316532      1.036995      0.053219
C      5.61067     10.35284      6.59456        -0.180153     -0.304163     -0.619043
C     15.36773     10.62556      6.59456         0.446914     -0.287428      0.117954
C      5.61067     10.62556     14.38384        -0.723316     -0.352695     -0.063246
C     15.36773     10.35284     14.38384         0.385046     -0.061886      1.012413
C     10.35284      6.59456      5.61067        -0.207268     -0.214946     -0.656729
C     10.62556      6.59456     15.36773        -0.267204      0.124566      0.448286
C     10.62556     14.38384      5.61067         0.204234      1.064813     -0.347711
C     10.35284     14.38384     15.36773         0.024964      0.538454      0.437501
C      6.59456      5.61067     10.35284        -0.172348     -0.652249      0.236591
C      6.59456     15.36773     10.62556        -1.020960      0.298738      0.079549
C     14.38384      5.61067     10.62556         0.492762     -0.545985     -0.364925
C     14.38384     15.36773     10.35284         0.214992      0.456103     -0.102258
C     10.40319      3.19606      7.29314         0.008611      0.691672     -0.485241
C     10.35913      4.25547      6.23373         0.085473     -0.728388     -0.018283
C      0.08601      7.29314      7.29314        -0.043966     -0.409839     -0.309965
C      0.13007      6.23373      6.23373        -0.022734      0.083180      0.568846
C      0.08601      3.19606      3.19606        -0.016931      1.252611      0.280762
C      0.13007      4.25547      4.25547         0.049195     -0.776796     -0.152774
C     10.40319      7.29314      3.19606         0.009995     -0.341225      0.351074
C     10.35913      6.23373      4.25547         0.027390      0.011776     -0.888342
C      7.29314     10.40319      3.19606        -0.352792      0.020507      0.564890
C      6.23373     10.35913      4.25547         0.207748      0.054886     -0.116825
C      7.29314      0.08601      7.29314        -0.523607     -0.064404     -0.372933
C      6.23373      0.13007      6.23373         0.680762     -0.048508      0.488669
C      3.19606      0.08601      3.19606         0.679480     -0.036759      0.566446
C      4.25547      0.13007      4.25547        -0.574672     -0.081629     -0.552926
C      3.19606     10.40319      7.29314         0.482930     -0.019021     -0.777575
C      4.25547     10.35913      6.23373        -0.481844      0.034073      0.201515
C      3.19606      7.29314     10.40319         0.286085     -1.259280      0.039615
C      4.25547      6.23373     10.35913        -0.712598      0.101771      0.153363
C      7.29314      7.29314      0.08601        -0.407331     -0.371410     -0.027951
C      6.23373      6.23373      0.13007         0.468418      0.213911     -0.020464
C      3.19606      3.19606      0.08601         0.498602      0.372855     -0.039443
C      4.25547      4.25547      0.13007        -0.151141     -0.650245     -0.034506
C      7.29314      3.19606     10.40319        -0.322288      0.424030      0.075486
C      6.23373      4.25547     10.35913         0.260846     -0.693118      0.138154
O     10.43466      3.58206      8.50569        -0.015308      0.102473      0.506446
O     10.54374     17.39634      8.50569         0.036586     -0.174841      0.483159
O     10.54374      3.58206     12.47271         0.057075     -0.083867     -0.187436
O     10.43466     17.39634     12.47271        -0.038390     -0.182962     -0.562884
O      8.50569     10.43466      3.58206         0.331226      0.002534      0.034203
O      8.50569     10.54374     17.39634         0.631822      0.033615     -0.144983
O     12.47271     10.54374      3.58206        -0.681601      0.082943      0.092135
O     12.47271     10.43466     17.39634        -0.439080      0.026644     -0.111371
O      3.58206      8.50569     10.43466         0.181139      1.033656     -0.046921
O     17.39634      8.50569     10.54374        -0.162053      0.539212      0.076470
O      3.58206     12.47271     10.54374         0.084137     -0.363723      0.048920
O     17.39634     12.47271     10.43466        -0.157518     -0.546102     -0.022734
O      3.58206     10.43466      8.50569         0.076010     -0.062545      0.592777
O     17.39634     10.54374      8.50569        -0.110718      0.065989      0.522260
O      3.58206     10.54374     12.47271         0.054286      0.051383     -0.532048
O     17.39634     10.43466     12.47271        -0.218607     -0.039824     -0.593950
O     10.43466      8.50569      3.58206        -0.039431      0.469456      0.134680
O     10.54374      8.50569     17.39634         0.048700      0.529876     -0.160603
O     10.54374     12.47271      3.58206        -0.002453     -1.006964      0.206260
O     10.43466     12.47271     17.39634         0.042047     -0.733305     -0.174738
O      8.50569      3.58206     10.43466         0.506732      0.146544     -0.054111
O      8.50569     17.39634     10.54374         0.486613     -0.197794      0.014020
O     12.47271      3.58206     10.54374        -0.639682      0.234675      0.008910
O     12.47271     17.39634     10.43466        -0.214142      0.068911     -0.056472
O     11.90042     11.90042     19.56718        -0.239611     -0.289224      0.247519
O     19.56718     19.56718     19.56718         0.310335      0.295126      0.300390
O     19.56718     11.90042     11.90042         0.290329     -0.264929     -0.233184
O     11.90042     19.56718     11.90042        -0.242350      0.290682     -0.335456
O      9.45224      1.03696      9.45224        -0.020292      0.086584     -0.072782
O      1.03696      9.45224      9.45224         0.091012     -0.091641     -0.138559
O      1.03696      1.03696      1.03696         0.089196      0.190060      0.047876
O      9.45224      9.45224      1.03696        -0.111246     -0.101049      0.031466
Zr     10.48920      2.52580     10.48920        -0.130980     -0.290444     -0.036102
Zr     10.48920     18.45260     10.48920        -0.073554      0.214776      0.092315
Zr     10.48920     10.48920      2.52580         0.056238     -0.408917     -0.251225
Zr     10.48920     10.48920     18.45260        -0.272426     -0.090313      0.324062
Zr      2.52580     10.48920     10.48920        -0.376518      0.239841      0.301236
Zr     18.45260     10.48920     10.48920         0.240110     -0.001028     -0.223366
Pd     13.60617      8.98829      9.20373        -0.004430      0.000618     -0.008659
Pd      5.62829      9.86689     10.12989         0.003018      0.001734     -0.006285
Pd      6.77132     11.84904     11.70967         0.001317     -0.003500     -0.001142
Pd     12.06012     12.99694      7.36046        -0.003996     -0.003426      0.002249
Pd     11.87540      7.73885      7.45549        -0.000739     -0.003289     -0.004493
Pd      8.31610      6.83304      6.53662         0.000218     -0.010852     -0.009056
Pd     10.57729     11.16864      5.65374        -0.016588     -0.001145      0.001569
Pd     14.39896      8.54789      6.73067        -0.002925     -0.001050     -0.002408
Pd      9.66603     11.72978      8.14511         0.000280     -0.000189      0.008808
Pd      6.73197      6.78904     12.33793        -0.003725     -0.001134      0.002736
Pd      6.60434      8.24044      7.90932         0.014327      0.028402     -0.028882
Pd      6.52511      8.49185     14.38592         0.001041     -0.001199      0.002241
Pd     11.48480      6.51369      9.94932        -0.000138     -0.007896      0.000681
Pd      9.46696      9.19871      7.16808        -0.004868     -0.000932     -0.000689
Pd      8.97857     13.99168      9.35815         0.002428     -0.007085      0.009071
Pd      9.43862      7.36802     11.70161        -0.005786     -0.002344     -0.000127
Pd     10.62908      8.96310      9.67627         0.007030      0.001201     -0.008458
Pd      9.34056     11.56451     10.73309        -0.003405      0.009235      0.003676
Pd      8.86775      7.06934      9.11456        -0.008311     -0.003652     -0.007322
Pd      8.55423      6.57988     14.23493         0.000186     -0.000552     -0.000880
Pd      7.62273      9.32190     12.02697        -0.007837      0.000591      0.005161
Pd     11.94489     10.37567      7.71240        -0.003206     -0.005071     -0.009006
Pd      7.12896     12.01490      9.06689         0.002532     -0.001733      0.002741
Pd      8.14650      9.62299      9.46180         0.000490      0.004258      0.016202
Pd     14.01189      6.50004      8.52399        -0.001330     -0.002730     -0.000440
Pd     12.62752      8.40711     11.56762         0.000123     -0.003161     -0.000225
Pd      8.76157     11.57206     13.41242        -0.002868     -0.000185      0.002338
Pd     13.87316     11.91460      8.96867        -0.006360     -0.003187     -0.003555
Pd     12.93624     10.70155     13.07418        -0.003261     -0.001947      0.001965
Pd     14.76621     10.43250     11.11825        -0.002263     -0.005926     -0.000074
Pd     12.05396     10.89756     10.53745        -0.008145      0.002498     -0.004521
Pd     11.44661     13.34964      9.92804        -0.001271      0.000605      0.002070
Pd     13.59803     12.91458     11.62712        -0.000985     -0.004403     -0.000246
Pd     11.11484     12.62566     12.54404        -0.000841      0.001794     -0.000487
Pd     10.94470     11.06524     14.81759         0.000589      0.001075      0.000928
Pd     10.50126      9.72361     12.37928        -0.005718     -0.000295     -0.000019
Pd      9.08436      9.14165     14.43307        -0.000178     -0.000680      0.004449
Pd      8.80178     13.86294     12.05918        -0.002838     -0.001776      0.008082
