152
# total energy = -1003.94619885 eVH     10.35389      5.87395      7.64558        -0.279538      0.237356      0.616192
H     10.62451     15.10445      7.64558        -0.317841     -0.134567      0.755923
H     10.62451      5.87395     13.33282         0.429842      0.049725     -0.887170
H     10.35389     15.10445     13.33282         0.047709     -0.174848     -0.482556
H      7.64558     10.35389      5.87395         0.509796      0.069547      0.027236
H      7.64558     10.62451     15.10445         0.728089      0.578879     -0.087456
H     13.33282     10.62451      5.87395        -0.487528     -0.164316      0.322174
H     13.33282     10.35389     15.10445        -0.681573     -0.114524     -0.015072
H      5.87395      7.64558     10.35389         0.091051      1.524986      0.097485
H     15.10445      7.64558     10.62451        -0.066231      0.587388      0.024166
H      5.87395     13.33282     10.62451         0.203526     -0.759170      0.089909
H     15.10445     13.33282     10.35389         0.037500     -1.227115      0.049112
H      5.87395     10.35389      7.64558         0.046409      0.097657      0.620121
H     15.10445     10.62451      7.64558        -0.156253      0.742951      1.304671
H      5.87395     10.62451     13.33282        -0.063426      0.461921     -1.438760
H     15.10445     10.35389     13.33282         0.459937     -0.032942     -1.011573
H     10.35389      7.64558      5.87395         0.219663      1.489015      0.128335
H     10.62451      7.64558     15.10445         0.592064      1.008668     -0.046147
H     10.62451     13.33282      5.87395        -0.577953     -0.737047      0.205774
H     10.35389     13.33282     15.10445        -0.058292     -0.444593     -0.220665
H      7.64558      5.87395     10.35389         1.155997     -0.282615     -0.336811
H      7.64558     15.10445     10.62451         0.731432     -0.190918      0.014696
H     13.33282      5.87395     10.62451        -0.763809      0.093093      0.514017
H     13.33282     15.10445     10.35389        -0.310399     -0.083345     -0.049148
H     12.45634     12.45634     19.01126         0.267420      0.243592     -0.239960
H     19.01126     19.01126     19.01126        -0.263143     -0.270343     -0.220417
H     19.01126     12.45634     12.45634        -0.269221      0.255889      0.235222
H     12.45634     19.01126     12.45634         0.258606     -0.276798      0.229456
C     10.35284      5.61067      6.59456        -0.111707     -0.858100     -0.734722
C     10.62556     15.36773      6.59456         0.198734      0.343860     -0.286040
C     10.62556      5.61067     14.38384        -0.153453     -0.698827      0.544599
C     10.35284     15.36773     14.38384        -0.003020      0.249482      0.502049
C      6.59456     10.35284      5.61067        -0.797144      0.076091     -0.494090
C      6.59456     10.62556     15.36773        -0.858157      0.208099      0.836584
C     14.38384     10.62556      5.61067         0.939707      0.044725     -0.922451
C     14.38384     10.35284     15.36773         1.095214     -0.030456      0.701046
C      5.61067      6.59456     10.35284        -0.730113     -0.678021     -0.438263
C     15.36773      6.59456     10.62556         0.730822      0.073968     -0.155973
C      5.61067     14.38384     10.62556        -0.309226      0.909216     -0.050438
C     15.36773     14.38384     10.35284         0.417286      1.364222     -0.261147
C      5.61067     10.35284      6.59456        -0.344884     -0.018153     -0.760972
C     15.36773     10.62556      6.59456         0.336346     -0.349469     -0.941468
C      5.61067     10.62556     14.38384        -0.387686     -0.096849      1.208276
C     15.36773     10.35284     14.38384         0.206209      0.021830      1.283430
C     10.35284      6.59456      5.61067        -0.021040     -1.145849     -0.324313
C     10.62556      6.59456     15.36773        -0.055754     -0.858383      0.665684
C     10.62556     14.38384      5.61067         0.066086      0.959099     -0.581338
C     10.35284     14.38384     15.36773        -0.023923      0.517280      0.314462
C      6.59456      5.61067     10.35284        -0.762895     -1.150999      0.184564
C      6.59456     15.36773     10.62556        -0.799307      0.211187      0.058205
C     14.38384      5.61067     10.62556        -0.008588     -0.519847     -0.303132
C     14.38384     15.36773     10.35284         0.055880      0.561607     -0.036616
C     10.40319      3.19606      7.29314         0.002282      0.426863     -0.876449
C     10.35913      4.25547      6.23373        -0.011516     -0.489458      0.100154
C      0.08601      7.29314      7.29314        -0.043412     -0.913224     -0.267852
C      0.13007      6.23373      6.23373        -0.003243      0.383555      0.538150
C      0.08601      3.19606      3.19606         0.024117      1.082746      0.244062
C      0.13007      4.25547      4.25547        -0.003291     -0.467074     -0.370385
C     10.40319      7.29314      3.19606        -0.015768     -0.615091      0.195672
C     10.35913      6.23373      4.25547        -0.029150      0.140361     -0.672406
C      7.29314     10.40319      3.19606        -0.378658      0.014959      0.215694
C      6.23373     10.35913      4.25547         0.210845      0.020997     -0.211023
C      7.29314      0.08601      7.29314        -1.076901     -0.077658     -0.387826
C      6.23373      0.13007      6.23373         0.629962     -0.193051      0.328769
C      3.19606      0.08601      3.19606         1.085741     -0.032103      0.272111
C      4.25547      0.13007      4.25547        -0.605366     -0.117347     -0.248570
C      3.19606     10.40319      7.29314         0.477649      0.025307     -0.247657
C      4.25547     10.35913      6.23373        -0.251026      0.018107      0.140307
C      3.19606      7.29314     10.40319         0.262181     -0.482812      0.055776
C      4.25547      6.23373     10.35913        -0.875244     -0.058824      0.131909
C      7.29314      7.29314      0.08601        -0.451239     -0.412235     -0.020644
C      6.23373      6.23373      0.13007         0.528261      0.266674      0.076395
C      3.19606      3.19606      0.08601         0.648343      0.459748     -0.016031
C      4.25547      4.25547      0.13007        -0.115497     -0.868904     -0.054719
C      7.29314      3.19606     10.40319        -0.339279      0.425299      0.049752
C      6.23373      4.25547     10.35913         0.484352     -0.646376      0.156061
O     10.43466      3.58206      8.50569         0.062117      0.255764      0.768976
O     10.54374     17.39634      8.50569         0.051855     -0.061650      0.342549
O     10.54374      3.58206     12.47271         0.005904     -0.019903     -0.279642
O     10.43466     17.39634     12.47271        -0.031447     -0.093056     -0.355727
O      8.50569     10.43466      3.58206         0.550432     -0.040920      0.159616
O      8.50569     10.54374     17.39634         0.859124     -0.081817     -0.207131
O     12.47271     10.54374      3.58206        -0.845998      0.153565      0.162509
O     12.47271     10.43466     17.39634        -0.567190      0.024168     -0.200753
O      3.58206      8.50569     10.43466         0.189962      0.599523     -0.050891
O     17.39634      8.50569     10.54374        -0.149616      0.598240      0.028086
O      3.58206     12.47271     10.54374         0.119981     -0.552284      0.040532
O     17.39634     12.47271     10.43466        -0.178972     -0.545848     -0.054360
O      3.58206     10.43466      8.50569         0.114252     -0.037488      0.372281
O     17.39634     10.54374      8.50569         0.031531      0.102708      0.332865
O      3.58206     10.54374     12.47271         0.008357      0.038678     -0.271107
O     17.39634     10.43466     12.47271        -0.128929     -0.028339     -0.382213
O     10.43466      8.50569      3.58206        -0.044811      0.662663      0.191269
O     10.54374      8.50569     17.39634        -0.075985      0.775560     -0.165082
O     10.54374     12.47271      3.58206         0.152689     -0.898973      0.208821
O     10.43466     12.47271     17.39634        -0.017907     -0.369584     -0.021080
O      8.50569      3.58206     10.43466         0.538386      0.141412     -0.050327
O      8.50569     17.39634     10.54374         0.575769     -0.175671      0.015428
O     12.47271      3.58206     10.54374        -0.709764      0.123688      0.025995
O     12.47271     17.39634     10.43466        -0.507209     -0.134494     -0.033640
O     11.90042     11.90042     19.56718        -0.314631     -0.264644      0.254572
O     19.56718     19.56718     19.56718         0.295346      0.327815      0.222103
O     19.56718     11.90042     11.90042         0.340233     -0.282033     -0.249346
O     11.90042     19.56718     11.90042        -0.288771      0.349408     -0.225393
O      9.45224      1.03696      9.45224        -0.034894      0.100599     -0.115105
O      1.03696      9.45224      9.45224         0.064638     -0.015710     -0.108019
O      1.03696      1.03696      1.03696         0.051774      0.089192      0.106365
O      9.45224      9.45224      1.03696        -0.033945     -0.017036      0.104107
Zr     10.48920      2.52580     10.48920        -0.099753     -0.251396      0.174719
Zr     10.48920     18.45260     10.48920         0.028571      0.050877      0.051171
Zr     10.48920     10.48920      2.52580        -0.253824     -0.196204     -0.399233
Zr     10.48920     10.48920     18.45260         0.148385      0.008740      0.320169
Zr      2.52580     10.48920     10.48920        -0.124677     -0.077589     -0.047250
Zr     18.45260     10.48920     10.48920         0.099017     -0.059848      0.103236
Pd     12.55739      8.25730      9.82811         0.063279     -0.216411     -0.070006
Pd      7.01163      9.59146     10.48940        -0.023030     -0.079054      0.072454
Pd      6.87446     11.73650     11.97976         0.010120      0.028501     -0.043092
Pd     12.26644     13.61752      7.41251        -0.089022     -0.026894     -0.023254
Pd     12.01335      7.88829      7.16266        -0.003902      0.074770      0.026782
Pd      8.63282      7.45362      7.02810         0.012854      0.002658     -0.064410
Pd     11.64900     11.59779      5.75097         0.057614     -0.018902     -0.058119
Pd     14.37176      8.88158      7.86295         0.097059     -0.045177     -0.125162
Pd      9.90759     11.89474      7.82906        -0.028370     -0.092615     -0.044627
Pd      7.14571      7.08085     11.99972        -0.006731     -0.040056     -0.010477
Pd      6.51804      7.88840      8.49500        -0.066345     -0.153747      0.014555
Pd      7.21909      9.18556     13.47115         0.080290      0.107784      0.042596
Pd     11.31656      6.00279      9.22572         0.028962     -0.006406      0.007027
Pd     10.05584      9.65390      6.26862         0.010324     -0.029612      0.060432
Pd      9.05232     13.90342      9.34676         0.086442     -0.024431     -0.095989
Pd     10.91120      6.96711     11.58263        -0.047696      0.005256      0.104725
Pd     10.29608      9.16486      8.96601        -0.093528      0.040576      0.023285
Pd      9.22150     11.37423     10.40473         0.130201      0.038457      0.040192
Pd      8.88473      7.17951      9.73078         0.053319      0.083858      0.004854
Pd      8.91876      7.18873     13.92153        -0.001237     -0.025645     -0.107835
Pd      9.23810      8.98664     11.69944         0.025239     -0.078333     -0.075340
Pd     12.35382     10.68422      8.19164        -0.030097      0.003217     -0.050828
Pd      6.95501     12.06289      9.27352        -0.105726      0.110218     -0.065356
Pd      8.07791      9.99917      8.05201        -0.068292     -0.012400      0.137652
Pd     13.91771      6.35723      8.51171         0.047455      0.025040     -0.003715
Pd     13.43286      7.76728     12.24695        -0.095443      0.066986      0.033664
Pd      9.19556     11.22382     13.15584        -0.099570      0.016614     -0.001212
Pd     14.21242     12.51287      8.75229        -0.155227     -0.075021      0.066788
Pd     13.32164     10.41547     12.82894         0.075529      0.087786      0.009341
Pd     14.25295     10.21488     10.23992         0.008099     -0.018211     -0.016058
Pd     11.55964     10.35752     11.03581        -0.250975      0.082829     -0.170298
Pd     11.48557     12.88554      9.81935        -0.028822      0.116861     -0.112549
Pd     13.61963     12.54627     11.40725         0.192132      0.156026     -0.032943
Pd     11.24788     12.68028     12.37865        -0.029722      0.000334      0.057569
Pd     11.48644     11.27994     14.60671        -0.085496      0.107804      0.130750
Pd     11.24844      8.89134     13.37968        -0.072277      0.052575      0.048352
Pd      9.45073      9.59730     15.20742         0.080854     -0.073346      0.120673
Pd      8.81029     13.60372     11.96731         0.124372      0.036306      0.062573
