152
# total energy = -1023.25708036 eVH     10.35389      5.87395      7.64558         0.485736      0.081032      0.708514
H     10.62451     15.10445      7.64558        -0.109041     -0.057764      0.802360
H     10.62451      5.87395     13.33282         0.145888      0.127496     -0.634746
H     10.35389     15.10445     13.33282        -0.179861     -0.117839     -0.546210
H      7.64558     10.35389      5.87395         0.311434     -0.022672      0.192976
H      7.64558     10.62451     15.10445         0.656869     -0.224945     -0.136302
H     13.33282     10.62451      5.87395        -0.761940     -0.142887      0.202684
H     13.33282     10.35389     15.10445        -0.444357     -0.109042     -0.059542
H      5.87395      7.64558     10.35389         0.208707      1.093153     -0.267096
H     15.10445      7.64558     10.62451        -0.174003      0.465337     -0.118426
H      5.87395     13.33282     10.62451         0.161032     -0.427790     -0.066068
H     15.10445     13.33282     10.35389        -0.128974     -0.909425      0.015820
H      5.87395     10.35389      7.64558         0.134982      0.094586      0.459645
H     15.10445     10.62451      7.64558         0.097974     -0.010806      1.083332
H      5.87395     10.62451     13.33282         0.194011     -0.034986     -0.390497
H     15.10445     10.35389     13.33282        -0.120745     -0.052480     -0.554299
H     10.35389      7.64558      5.87395         0.122903      0.890264      0.189372
H     10.62451      7.64558     15.10445        -0.007377      0.514419     -0.165594
H     10.62451     13.33282      5.87395        -0.021876     -0.595515      0.226265
H     10.35389     13.33282     15.10445        -0.304222     -0.891927     -0.123582
H      7.64558      5.87395     10.35389         0.440008      0.095641     -0.054314
H      7.64558     15.10445     10.62451         0.855313     -0.278679      0.036680
H     13.33282      5.87395     10.62451        -0.455860      0.184390     -0.066128
H     13.33282     15.10445     10.35389        -0.659235     -0.098224      0.161462
H     12.45634     12.45634     19.01126         0.252355      0.263813     -0.230223
H     19.01126     19.01126     19.01126        -0.251705     -0.233032     -0.261885
H     19.01126     12.45634     12.45634        -0.237154      0.272066      0.238093
H     12.45634     19.01126     12.45634         0.224342     -0.265451      0.248928
C     10.35284      5.61067      6.59456        -0.194799     -0.365763     -0.025604
C     10.62556     15.36773      6.59456         0.065898      0.376064     -1.200993
C     10.62556      5.61067     14.38384        -0.055384     -0.240916      0.798917
C     10.35284     15.36773     14.38384         0.051090      0.888447      0.403558
C      6.59456     10.35284      5.61067        -0.371100     -0.037249     -0.174354
C      6.59456     10.62556     15.36773        -0.845840      0.205203      0.370132
C     14.38384     10.62556      5.61067         0.445477      0.295784     -0.508144
C     14.38384     10.35284     15.36773         0.784634     -0.117532      0.444240
C      5.61067      6.59456     10.35284        -0.313607     -0.651650      0.423171
C     15.36773      6.59456     10.62556         0.170648     -0.518751      0.075663
C      5.61067     14.38384     10.62556        -0.144925      0.392736     -0.023413
C     15.36773     14.38384     10.35284         0.398073     -0.047149     -0.107634
C      5.61067     10.35284      6.59456        -0.258885     -0.018816     -0.782919
C     15.36773     10.62556      6.59456         0.602934     -0.276349     -1.344913
C      5.61067     10.62556     14.38384        -0.347273     -0.000005      0.430741
C     15.36773     10.35284     14.38384         0.495988     -0.168164      1.135641
C     10.35284      6.59456      5.61067        -0.166304     -0.504713     -0.437978
C     10.62556      6.59456     15.36773         0.053034     -0.619643      0.266256
C     10.62556     14.38384      5.61067         0.109679      1.012500     -0.489912
C     10.35284     14.38384     15.36773         0.246902      0.589036      0.549890
C      6.59456      5.61067     10.35284        -0.096622     -0.810228      0.073271
C      6.59456     15.36773     10.62556        -1.518608      0.407039      0.104568
C     14.38384      5.61067     10.62556         0.649002     -0.272686     -0.016174
C     14.38384     15.36773     10.35284        -0.433789      0.679340     -0.311077
C     10.40319      3.19606      7.29314         0.007969      0.844009     -0.296546
C     10.35913      4.25547      6.23373        -0.053362     -0.461020      0.514715
C      0.08601      7.29314      7.29314        -0.007452     -0.267504     -0.498642
C      0.13007      6.23373      6.23373         0.028869      0.136646      0.204526
C      0.08601      3.19606      3.19606        -0.011957      0.669222      0.195031
C      0.13007      4.25547      4.25547        -0.092279     -0.183388     -0.203079
C     10.40319      7.29314      3.19606        -0.007251     -0.662306      0.556158
C     10.35913      6.23373      4.25547        -0.042074      0.281375     -0.613551
C      7.29314     10.40319      3.19606        -0.335134      0.026669      0.928680
C      6.23373     10.35913      4.25547         0.176768      0.030050     -0.125603
C      7.29314      0.08601      7.29314        -0.311989     -0.040053     -0.298400
C      6.23373      0.13007      6.23373         0.335863     -0.053559      0.330014
C      3.19606      0.08601      3.19606         0.537759     -0.035598      0.706418
C      4.25547      0.13007      4.25547        -0.091479     -0.034788     -0.378518
C      3.19606     10.40319      7.29314         0.727866      0.000632     -0.404359
C      4.25547     10.35913      6.23373        -0.158322      0.031647      0.086992
C      3.19606      7.29314     10.40319         0.664383     -1.287304     -0.010742
C      4.25547      6.23373     10.35913        -0.645843      0.916021      0.083536
C      7.29314      7.29314      0.08601        -0.665637     -0.184933     -0.020229
C      6.23373      6.23373      0.13007         0.211397      0.203424      0.013640
C      3.19606      3.19606      0.08601         0.265936      0.291391     -0.022024
C      4.25547      4.25547      0.13007        -0.073081     -0.038057     -0.002457
C      7.29314      3.19606     10.40319        -0.364026      0.999338      0.015355
C      6.23373      4.25547     10.35913         1.060774     -0.029415      0.014092
O     10.43466      3.58206      8.50569        -0.044070      0.045083      0.382673
O     10.54374     17.39634      8.50569        -0.038118     -0.168590      0.578758
O     10.54374      3.58206     12.47271         0.050576      0.053889     -0.305614
O     10.43466     17.39634     12.47271        -0.011079     -0.137390     -0.626387
O      8.50569     10.43466      3.58206         0.357897     -0.027470     -0.028148
O      8.50569     10.54374     17.39634         0.472747      0.044533     -0.147179
O     12.47271     10.54374      3.58206        -0.488209      0.011984      0.082120
O     12.47271     10.43466     17.39634        -0.812851      0.001933     -0.198385
O      3.58206      8.50569     10.43466         0.112720      1.045391      0.016048
O     17.39634      8.50569     10.54374        -0.035281      0.316021      0.073418
O      3.58206     12.47271     10.54374         0.071869     -0.461327      0.049996
O     17.39634     12.47271     10.43466        -0.175965     -0.893641      0.054517
O      3.58206     10.43466      8.50569        -0.065827     -0.070766      0.317137
O     17.39634     10.54374      8.50569        -0.131054      0.041620      0.459823
O      3.58206     10.54374     12.47271         0.084655     -0.024903     -0.636010
O     17.39634     10.43466     12.47271        -0.183464      0.052549     -0.777424
O     10.43466      8.50569      3.58206         0.029254      0.654130      0.156027
O     10.54374      8.50569     17.39634         0.061756      0.451040     -0.086855
O     10.54374     12.47271      3.58206        -0.015159     -0.751650      0.234435
O     10.43466     12.47271     17.39634         0.034365     -0.855497     -0.242460
O      8.50569      3.58206     10.43466         0.444661      0.021946     -0.039885
O      8.50569     17.39634     10.54374         0.682041     -0.263008     -0.060520
O     12.47271      3.58206     10.54374        -0.462383      0.151526      0.041844
O     12.47271     17.39634     10.43466        -0.546155     -0.020503     -0.008806
O     11.90042     11.90042     19.56718        -0.293832     -0.314885      0.254721
O     19.56718     19.56718     19.56718         0.283081      0.264749      0.310542
O     19.56718     11.90042     11.90042         0.261463     -0.322664     -0.241469
O     11.90042     19.56718     11.90042        -0.271694      0.278793     -0.265793
O      9.45224      1.03696      9.45224        -0.082455      0.041704     -0.069994
O      1.03696      9.45224      9.45224         0.016461     -0.167807     -0.098383
O      1.03696      1.03696      1.03696         0.001771      0.069218      0.181477
O      9.45224      9.45224      1.03696        -0.062485     -0.097938      0.109700
Zr     10.48920      2.52580     10.48920        -0.000657     -0.095502     -0.057087
Zr     10.48920     18.45260     10.48920         0.124631      0.344241     -0.007583
Zr     10.48920     10.48920      2.52580         0.013726     -0.044960     -0.402653
Zr     10.48920     10.48920     18.45260        -0.161568     -0.063979      0.375610
Zr      2.52580     10.48920     10.48920        -0.331422      0.242454     -0.128145
Zr     18.45260     10.48920     10.48920         0.276153     -0.016041     -0.286064
Pd      8.98987     10.13449     13.31679        -0.030358     -0.021264     -0.011781
Pd     10.69466      9.70727     10.84597        -0.014664     -0.011035     -0.031577
Pd     13.73144      8.41961     12.57724        -0.009953      0.014040     -0.017646
Pd     11.00913     10.91502     14.97362        -0.012769     -0.008450      0.008806
Pd     12.90972     11.04209     12.97441         0.001826      0.010236      0.008605
Pd     15.09592     11.09777     11.31426        -0.017300     -0.027039     -0.001218
Pd      6.60819      7.70404     12.31915         0.000502      0.024358      0.006873
Pd      9.31855      7.30578      9.86554        -0.004602     -0.010747     -0.004697
Pd      9.23617      7.48099     12.62785        -0.006097      0.002178     -0.017820
Pd     11.64558      7.17342     11.41329        -0.005966      0.000462     -0.007518
Pd     11.69784      8.00167      8.89274        -0.005248     -0.013697     -0.019264
Pd      7.37021     11.78303     11.78736        -0.000561     -0.002423     -0.011828
Pd      9.19250     14.74102      9.43934        -0.002512     -0.020685     -0.003533
Pd      8.39675     12.55792     14.26578        -0.012098     -0.011764     -0.010016
Pd     14.09325     14.25498      8.31339         0.002234     -0.005520     -0.001295
Pd     11.50235     13.64608      8.72988         0.006641     -0.002449      0.005143
Pd     14.16043     11.69583      8.88792         0.001232     -0.001665     -0.005850
Pd      8.71814     14.03884     12.07698        -0.003802     -0.011790      0.002299
Pd     12.27151     13.51932     14.14600        -0.009342     -0.000626     -0.009277
Pd     11.34431     14.41839     11.44320         0.001569     -0.009654     -0.002146
Pd     14.07402     13.60451     12.26682        -0.001090     -0.016188     -0.003357
Pd     12.42243     12.15715     10.72511         0.001534     -0.024343      0.022584
Pd     12.75389     12.53546      6.67520        -0.004702     -0.002129     -0.005574
Pd     13.93428      9.00339      7.98241         0.001259     -0.013232     -0.023178
Pd      6.94328      8.50397      8.76503        -0.007179     -0.025270     -0.022274
Pd      5.62457     10.10346     10.72111        -0.010966     -0.004550     -0.033172
Pd      9.39647      9.47905      8.10931         0.009081     -0.020574     -0.038322
Pd      8.57213      7.04068      7.23650        -0.008873     -0.019956     -0.007965
Pd      9.76023     12.12794     10.37066        -0.010779     -0.008835      0.003044
Pd     11.63750     10.82100      8.47691        -0.015866     -0.014882     -0.015132
Pd     11.58486      9.09411      6.45612         0.006979      0.000966     -0.007211
Pd     10.09476     11.34425      6.28408         0.014060     -0.019731     -0.028739
Ir     11.29665      9.01343     13.21810        -0.005356      0.010910     -0.018895
Ir     13.22202      9.61810     10.37227         0.002554     -0.011022     -0.000538
Ir     10.55173     12.23209     12.74669         0.000256     -0.007731      0.005475
Ir      7.59661     11.00855      9.25986         0.029914      0.035141     -0.036925
Ir      8.87994     12.58613      8.07277         0.015094     -0.018499      0.025124
Ir      8.19660      9.31682     11.00811         0.020126     -0.024591      0.025632
