152
# total energy = -1023.86906615 eVH     10.35389      5.87395      7.64558         0.538475      0.072802      0.795626
H     10.62451     15.10445      7.64558        -0.004785     -0.160790      0.560424
H     10.62451      5.87395     13.33282         0.138140      0.158092     -0.648549
H     10.35389     15.10445     13.33282        -0.299214     -0.061222     -0.709864
H      7.64558     10.35389      5.87395         0.314228     -0.015762      0.187800
H      7.64558     10.62451     15.10445         1.042870     -0.368113     -0.006685
H     13.33282     10.62451      5.87395        -0.753459     -0.000650      0.178566
H     13.33282     10.35389     15.10445        -0.829000     -0.329521      0.143121
H      5.87395      7.64558     10.35389         0.208629      0.736487     -0.066493
H     15.10445      7.64558     10.62451        -0.147076      0.399324     -0.042854
H      5.87395     13.33282     10.62451         0.180073     -0.495818     -0.080361
H     15.10445     13.33282     10.35389        -0.115652     -1.058710      0.051391
H      5.87395     10.35389      7.64558         0.152048      0.101295      0.453078
H     15.10445     10.62451      7.64558         0.063091      0.124654      1.105013
H      5.87395     10.62451     13.33282         0.104774     -0.030700     -0.373126
H     15.10445     10.35389     13.33282        -0.085709     -0.124202     -0.624300
H     10.35389      7.64558      5.87395         0.043052      0.866162      0.225724
H     10.62451      7.64558     15.10445         0.015410      0.287771     -0.172533
H     10.62451     13.33282      5.87395        -0.049439     -0.551132      0.241008
H     10.35389     13.33282     15.10445        -0.516008     -0.740638     -0.057669
H      7.64558      5.87395     10.35389         0.455657      0.116461      0.047632
H      7.64558     15.10445     10.62451         0.791938     -0.290864      0.085299
H     13.33282      5.87395     10.62451        -0.492480      0.166107     -0.068521
H     13.33282     15.10445     10.35389        -0.628997     -0.054629      0.172388
H     12.45634     12.45634     19.01126         0.240906      0.280339     -0.229185
H     19.01126     19.01126     19.01126        -0.253776     -0.238112     -0.252197
H     19.01126     12.45634     12.45634        -0.250839      0.272894      0.225531
H     12.45634     19.01126     12.45634         0.227737     -0.263720      0.242771
C     10.35284      5.61067      6.59456        -0.194708     -0.567316      0.062734
C     10.62556     15.36773      6.59456         0.013187      0.424978     -0.759700
C     10.62556      5.61067     14.38384        -0.054024     -0.100535      0.768819
C     10.35284     15.36773     14.38384         0.097727      0.697802      0.284623
C      6.59456     10.35284      5.61067        -0.382161     -0.029961     -0.239287
C      6.59456     10.62556     15.36773        -1.082760      0.432970      0.393412
C     14.38384     10.62556      5.61067         0.405277      0.286878     -0.596058
C     14.38384     10.35284     15.36773         1.003280     -0.048270      0.402682
C      5.61067      6.59456     10.35284        -0.370743     -0.484114      0.285569
C     15.36773      6.59456     10.62556         0.175111     -0.511417      0.032885
C      5.61067     14.38384     10.62556        -0.121671      0.498705     -0.004897
C     15.36773     14.38384     10.35284         0.343714     -0.098452     -0.155888
C      5.61067     10.35284      6.59456        -0.277790     -0.049211     -0.810625
C     15.36773     10.62556      6.59456         0.693907     -0.325211     -1.188647
C      5.61067     10.62556     14.38384        -0.559763     -0.021274      0.165891
C     15.36773     10.35284     14.38384         0.656264     -0.125566      1.136488
C     10.35284      6.59456      5.61067        -0.283208     -0.442324     -0.763809
C     10.62556      6.59456     15.36773         0.050323     -0.277470      0.120427
C     10.62556     14.38384      5.61067         0.148206      1.109742     -0.416558
C     10.35284     14.38384     15.36773         0.195671      0.253194      0.651018
C      6.59456      5.61067     10.35284        -0.303937     -0.789990      0.052920
C      6.59456     15.36773     10.62556        -1.329067      0.351594      0.036688
C     14.38384      5.61067     10.62556         0.724316     -0.244544      0.016557
C     14.38384     15.36773     10.35284        -0.539966      0.698005     -0.312020
C     10.40319      3.19606      7.29314        -0.000956      0.869356     -0.388132
C     10.35913      4.25547      6.23373         0.036472     -0.526739      0.545377
C      0.08601      7.29314      7.29314        -0.006835     -0.455784     -0.403204
C      0.13007      6.23373      6.23373        -0.012001      0.028439      0.096246
C      0.08601      3.19606      3.19606        -0.019643      0.913090      0.179694
C      0.13007      4.25547      4.25547        -0.067603     -0.200569     -0.244511
C     10.40319      7.29314      3.19606        -0.007634     -0.921485      0.465839
C     10.35913      6.23373      4.25547         0.020294      0.433577     -0.643229
C      7.29314     10.40319      3.19606        -0.434980      0.040233      0.834481
C      6.23373     10.35913      4.25547         0.243907      0.086487     -0.113894
C      7.29314      0.08601      7.29314        -0.438980     -0.023013     -0.274984
C      6.23373      0.13007      6.23373         0.441763     -0.068684      0.491001
C      3.19606      0.08601      3.19606         0.741741     -0.016443      0.406157
C      4.25547      0.13007      4.25547        -0.107885     -0.054802     -0.437432
C      3.19606     10.40319      7.29314         0.702404     -0.003583     -0.687717
C      4.25547     10.35913      6.23373        -0.245275      0.105835      0.216404
C      3.19606      7.29314     10.40319         0.499463     -1.286381     -0.031403
C      4.25547      6.23373     10.35913        -0.435811      0.844890      0.048867
C      7.29314      7.29314      0.08601        -0.567883     -0.238336     -0.014678
C      6.23373      6.23373      0.13007         0.171919      0.137343     -0.017003
C      3.19606      3.19606      0.08601         0.243104      0.311744     -0.023776
C      4.25547      4.25547      0.13007        -0.068359     -0.047534      0.020090
C      7.29314      3.19606     10.40319        -0.357126      0.720554      0.018318
C      6.23373      4.25547     10.35913         1.112902      0.073012      0.010296
O     10.43466      3.58206      8.50569        -0.034069      0.040213      0.431645
O     10.54374     17.39634      8.50569        -0.023495     -0.104010      0.477991
O     10.54374      3.58206     12.47271         0.051758     -0.013137     -0.212680
O     10.43466     17.39634     12.47271        -0.047661     -0.073442     -0.535424
O      8.50569     10.43466      3.58206         0.395973     -0.014758     -0.012891
O      8.50569     10.54374     17.39634         0.545078      0.027809     -0.159751
O     12.47271     10.54374      3.58206        -0.651724     -0.023845      0.157872
O     12.47271     10.43466     17.39634        -0.644180     -0.026169     -0.086970
O      3.58206      8.50569     10.43466         0.167630      1.104781      0.002813
O     17.39634      8.50569     10.54374        -0.038413      0.365717      0.074323
O      3.58206     12.47271     10.54374         0.078820     -0.485683      0.032270
O     17.39634     12.47271     10.43466        -0.163860     -0.719034      0.013799
O      3.58206     10.43466      8.50569        -0.010549     -0.067447      0.543070
O     17.39634     10.54374      8.50569        -0.114084      0.040784      0.401546
O      3.58206     10.54374     12.47271         0.039869      0.010220     -0.414488
O     17.39634     10.43466     12.47271        -0.218006      0.019954     -0.728100
O     10.43466      8.50569      3.58206         0.084803      0.817671      0.197017
O     10.54374      8.50569     17.39634         0.070789      0.613783     -0.131100
O     10.54374     12.47271      3.58206        -0.038221     -0.896568      0.243499
O     10.43466     12.47271     17.39634         0.009269     -0.939919     -0.215362
O      8.50569      3.58206     10.43466         0.512693      0.090463     -0.022950
O      8.50569     17.39634     10.54374         0.636414     -0.246911     -0.039167
O     12.47271      3.58206     10.54374        -0.447845      0.134486      0.052982
O     12.47271     17.39634     10.43466        -0.414667      0.029310     -0.018662
O     11.90042     11.90042     19.56718        -0.266279     -0.332347      0.250732
O     19.56718     19.56718     19.56718         0.285882      0.270410      0.299797
O     19.56718     11.90042     11.90042         0.277666     -0.319241     -0.210573
O     11.90042     19.56718     11.90042        -0.273830      0.289092     -0.260563
O      9.45224      1.03696      9.45224        -0.082037      0.050887     -0.056018
O      1.03696      9.45224      9.45224         0.054262     -0.162696     -0.098092
O      1.03696      1.03696      1.03696         0.011968      0.073046      0.196089
O      9.45224      9.45224      1.03696        -0.055277     -0.084157      0.136279
Zr     10.48920      2.52580     10.48920        -0.026173     -0.083887     -0.132162
Zr     10.48920     18.45260     10.48920         0.101189      0.262309      0.009769
Zr     10.48920     10.48920      2.52580         0.007981     -0.112865     -0.525959
Zr     10.48920     10.48920     18.45260        -0.200780      0.027893      0.446818
Zr      2.52580     10.48920     10.48920        -0.392335      0.268040      0.103413
Zr     18.45260     10.48920     10.48920         0.208992      0.060895     -0.291361
Pd      8.61403      9.85884     13.37367         0.074892      0.290177      0.100453
Pd     10.52554      9.55275     10.34971         0.076238     -0.021708     -0.746982
Pd     13.45891      8.74104     12.53908         0.229558      0.079957     -0.006375
Pd     10.78759     10.67057     15.13094        -0.161688     -0.004980     -0.213638
Pd     12.99260     11.29474     13.39364         0.157763      0.089711      0.001754
Pd     14.98323     10.74726     11.27096        -0.017698      0.008368      0.106330
Pd      6.65613      7.91951     12.49993         0.020057     -0.081963      0.170677
Pd      9.29910      7.21787      9.68111        -0.086458     -0.032786     -0.181828
Pd      9.34983      7.47775     12.41849         0.191712     -0.187869      0.075763
Pd     11.72173      7.29782     11.19559        -0.208690     -0.229468     -0.207594
Pd     11.70736      7.77840      8.51273        -0.039551      0.177460     -0.048694
Pd      7.29278     11.74308     11.64462        -0.101047     -0.279141     -0.176057
Pd      9.26603     14.58657      9.56994         0.174486     -0.333074     -0.253422
Pd      8.05092     12.40860     14.24972         0.193228     -0.191561     -0.016623
Pd     14.16123     14.19090      8.33147         0.027210      0.109356     -0.004603
Pd     11.65245     13.46873      8.87966        -0.152130     -0.060876      0.066092
Pd     14.10004     11.63878      8.93339        -0.102116     -0.089521     -0.036875
Pd      8.76131     13.88766     12.23899        -0.101798      0.355077     -0.089331
Pd     12.18225     13.73410     14.07418        -0.056242      0.153597      0.048864
Pd     11.38045     14.07330     11.48448         0.179528      0.226741     -0.044669
Pd     14.02157     13.53576     12.17158         0.058996     -0.180332     -0.031212
Pd     12.36890     11.67776     10.89280         0.123409     -0.052620     -0.063085
Pd     12.77864     12.60423      6.65511         0.095657      0.121625     -0.092627
Pd     13.96726      8.90506      7.67862        -0.087832     -0.021488     -0.020183
Pd      7.00780      8.40843      8.59377         0.016226      0.135763      0.078273
Pd      5.62359     10.08901     10.29001         0.288827     -0.091142     -0.025303
Pd      9.42883      9.33535      7.69905        -0.065920     -0.083779      0.059761
Pd      8.46948      6.84420      7.05445         0.101585      0.121560      0.062524
Pd      9.74528     12.02029     10.57226        -0.445348     -0.279255     -1.093681
Pd     11.68086     10.72225      8.18631        -0.189801     -0.174431      0.230625
Pd     11.72367      9.00985      6.07785        -0.067524      0.052413      0.123073
Pd     10.23854     11.28574      6.00030         0.018550      0.024951     -0.287276
Ir     11.06977      9.55868     12.74592        -0.132961     -0.299552      0.767912
Ir     13.16270      9.34049     10.04094         0.115642      0.146694      0.132760
Ir     10.44721     11.98727     12.90905         0.184356      0.176229      0.876367
Ir      7.80416     10.91372      9.08914         0.238582      0.119339      0.293169
Ir      9.34413     12.39899      8.05069        -0.108310     -0.112655      0.599461
Ir      8.11402      9.23758     10.93624        -0.379711      0.370311     -0.672311
