152
# total energy = -1022.89597650 eVH     10.35389      5.87395      7.64558         0.473057      0.027925      0.875057
H     10.62451     15.10445      7.64558        -0.052675      0.035602      0.773191
H     10.62451      5.87395     13.33282         0.146165      0.117127     -0.610698
H     10.35389     15.10445     13.33282        -0.250740     -0.082247     -0.560174
H      7.64558     10.35389      5.87395         0.329664     -0.033027      0.189577
H      7.64558     10.62451     15.10445         0.620194     -0.195542     -0.139715
H     13.33282     10.62451      5.87395        -0.831153     -0.308549      0.174692
H     13.33282     10.35389     15.10445        -0.452000     -0.084830     -0.066079
H      5.87395      7.64558     10.35389         0.137609      1.101563     -0.176939
H     15.10445      7.64558     10.62451        -0.169926      0.406686     -0.086573
H      5.87395     13.33282     10.62451         0.144060     -0.410436     -0.072456
H     15.10445     13.33282     10.35389        -0.078102     -0.969426     -0.173390
H      5.87395     10.35389      7.64558         0.130692      0.045139      0.486074
H     15.10445     10.62451      7.64558         0.108458     -0.193692      0.844290
H      5.87395     10.62451     13.33282         0.260708     -0.033646     -0.394819
H     15.10445     10.35389     13.33282        -0.151211      0.012747     -0.623152
H     10.35389      7.64558      5.87395         0.060580      0.890445      0.114724
H     10.62451      7.64558     15.10445         0.025961      0.537854     -0.146915
H     10.62451     13.33282      5.87395         0.043625     -0.594813      0.187841
H     10.35389     13.33282     15.10445        -0.257365     -0.896891     -0.110913
H      7.64558      5.87395     10.35389         0.520413      0.050901     -0.127004
H      7.64558     15.10445     10.62451         0.917656     -0.214195      0.271732
H     13.33282      5.87395     10.62451        -0.439742      0.185052     -0.059448
H     13.33282     15.10445     10.35389        -0.991636     -0.106078      0.243919
H     12.45634     12.45634     19.01126         0.265683      0.257753     -0.225361
H     19.01126     19.01126     19.01126        -0.247391     -0.235049     -0.262249
H     19.01126     12.45634     12.45634        -0.240066      0.271064      0.239272
H     12.45634     19.01126     12.45634         0.211842     -0.281871      0.252695
C     10.35284      5.61067      6.59456        -0.112911     -0.448727     -0.354897
C     10.62556     15.36773      6.59456         0.023179      0.350737     -1.156554
C     10.62556      5.61067     14.38384        -0.032421     -0.213998      0.732016
C     10.35284     15.36773     14.38384         0.165346      0.782462      0.168283
C      6.59456     10.35284      5.61067        -0.406489     -0.039269     -0.176678
C      6.59456     10.62556     15.36773        -0.793748      0.154927      0.350517
C     14.38384     10.62556      5.61067         0.574545      0.290615     -0.380141
C     14.38384     10.35284     15.36773         0.724659     -0.119169      0.430386
C      5.61067      6.59456     10.35284        -0.419669     -0.723070      0.295110
C     15.36773      6.59456     10.62556         0.196170     -0.466902      0.047362
C      5.61067     14.38384     10.62556        -0.248620      0.382588     -0.027207
C     15.36773     14.38384     10.35284         0.409131      0.133280      0.163698
C      5.61067     10.35284      6.59456        -0.307347     -0.017142     -0.887622
C     15.36773     10.62556      6.59456         0.579567     -0.170507     -1.238577
C      5.61067     10.62556     14.38384        -0.448351      0.006384      0.854241
C     15.36773     10.35284     14.38384         0.518441     -0.183721      1.244432
C     10.35284      6.59456      5.61067        -0.041125     -0.925544     -0.656973
C     10.62556      6.59456     15.36773         0.042210     -0.636080      0.286761
C     10.62556     14.38384      5.61067         0.051181      1.221539     -0.679358
C     10.35284     14.38384     15.36773         0.109267      0.607321      0.647443
C      6.59456      5.61067     10.35284        -0.198159     -0.879946      0.126765
C      6.59456     15.36773     10.62556        -1.709414      0.486275      0.049912
C     14.38384      5.61067     10.62556         0.591514     -0.230445     -0.007564
C     14.38384     15.36773     10.35284         0.110752      0.566378     -0.245144
C     10.40319      3.19606      7.29314         0.014957      0.895520     -0.256763
C     10.35913      4.25547      6.23373        -0.056132     -0.375210      0.600142
C      0.08601      7.29314      7.29314        -0.008940     -0.242107     -0.470113
C      0.13007      6.23373      6.23373         0.004375      0.114866      0.207310
C      0.08601      3.19606      3.19606        -0.016567      0.650146      0.185736
C      0.13007      4.25547      4.25547        -0.088685     -0.198283     -0.170643
C     10.40319      7.29314      3.19606        -0.002480     -0.695796      0.526197
C     10.35913      6.23373      4.25547        -0.014352      0.491939     -0.433581
C      7.29314     10.40319      3.19606        -0.337478      0.023825      0.875896
C      6.23373     10.35913      4.25547         0.212782      0.013941     -0.142853
C      7.29314      0.08601      7.29314        -0.310653     -0.045454     -0.280538
C      6.23373      0.13007      6.23373         0.273676     -0.057895      0.300983
C      3.19606      0.08601      3.19606         0.454474     -0.051349      1.273462
C      4.25547      0.13007      4.25547        -0.113418     -0.028505     -0.462430
C      3.19606     10.40319      7.29314         0.701003      0.013843     -0.266771
C      4.25547     10.35913      6.23373        -0.136300      0.031349      0.103979
C      3.19606      7.29314     10.40319         0.608961     -1.273032      0.022362
C      4.25547      6.23373     10.35913        -0.705558      0.854127      0.055520
C      7.29314      7.29314      0.08601        -0.650621     -0.174546     -0.021377
C      6.23373      6.23373      0.13007         0.174994      0.265943     -0.007053
C      3.19606      3.19606      0.08601         0.242656      0.254074     -0.019122
C      4.25547      4.25547      0.13007        -0.056642     -0.036936      0.010781
C      7.29314      3.19606     10.40319        -0.370819      0.816686      0.014137
C      6.23373      4.25547     10.35913         0.890059     -0.155061      0.007301
O     10.43466      3.58206      8.50569        -0.049381      0.036216      0.327041
O     10.54374     17.39634      8.50569        -0.024466     -0.179883      0.600011
O     10.54374      3.58206     12.47271         0.054342      0.060304     -0.322988
O     10.43466     17.39634     12.47271        -0.022868     -0.126065     -0.585220
O      8.50569     10.43466      3.58206         0.373518     -0.025602     -0.017772
O      8.50569     10.54374     17.39634         0.471918      0.052376     -0.142504
O     12.47271     10.54374      3.58206        -0.300269      0.045945     -0.067544
O     12.47271     10.43466     17.39634        -0.851825      0.019039     -0.227440
O      3.58206      8.50569     10.43466         0.045715      0.932250      0.037097
O     17.39634      8.50569     10.54374        -0.040723      0.339808      0.077793
O      3.58206     12.47271     10.54374         0.062873     -0.422741      0.064370
O     17.39634     12.47271     10.43466        -0.171524     -0.789639      0.023250
O      3.58206     10.43466      8.50569        -0.055938     -0.066869      0.225036
O     17.39634     10.54374      8.50569        -0.136155      0.043548      0.463959
O      3.58206     10.54374     12.47271        -0.010720     -0.050289     -0.883395
O     17.39634     10.43466     12.47271        -0.198108      0.045796     -0.771347
O     10.43466      8.50569      3.58206         0.045987      0.679940      0.189194
O     10.54374      8.50569     17.39634         0.054109      0.440381     -0.081084
O     10.54374     12.47271      3.58206        -0.007505     -0.736394      0.225787
O     10.43466     12.47271     17.39634         0.047204     -0.849262     -0.272333
O      8.50569      3.58206     10.43466         0.485925      0.070301     -0.037819
O      8.50569     17.39634     10.54374         0.651787     -0.252703     -0.060430
O     12.47271      3.58206     10.54374        -0.482432      0.163141      0.039471
O     12.47271     17.39634     10.43466        -0.526010     -0.034496     -0.028132
O     11.90042     11.90042     19.56718        -0.303613     -0.312129      0.264282
O     19.56718     19.56718     19.56718         0.286363      0.272248      0.320810
O     19.56718     11.90042     11.90042         0.277111     -0.330252     -0.243771
O     11.90042     19.56718     11.90042        -0.231537      0.289858     -0.242040
O      9.45224      1.03696      9.45224        -0.075255      0.047746     -0.066804
O      1.03696      9.45224      9.45224         0.051477     -0.146812     -0.060720
O      1.03696      1.03696      1.03696         0.039189      0.036450      0.188546
O      9.45224      9.45224      1.03696        -0.042253     -0.091890      0.122853
Zr     10.48920      2.52580     10.48920        -0.006177     -0.075718     -0.026592
Zr     10.48920     18.45260     10.48920         0.061706      0.306988     -0.070806
Zr     10.48920     10.48920      2.52580        -0.092199      0.010375     -0.376754
Zr     10.48920     10.48920     18.45260        -0.135634     -0.148361      0.332503
Zr      2.52580     10.48920     10.48920        -0.360105      0.312307     -0.450534
Zr     18.45260     10.48920     10.48920         0.248118      0.030495     -0.271085
Pd      9.03012     10.24557     13.32983        -0.012105     -0.010749      0.009355
Pd     10.57879      9.71762     10.94642         0.011567     -0.007198     -0.033046
Pd     13.77080      8.53577     12.68790        -0.001065      0.004696     -0.011037
Pd     11.00153     11.06189     15.00967        -0.003494     -0.016053      0.000336
Pd     12.86945     11.17524     13.00945         0.013899      0.009431      0.018799
Pd     15.00046     10.94661     11.34001         0.000748      0.017179     -0.007299
Pd      6.64971      7.45374     12.34367        -0.003395      0.024108      0.000254
Pd      9.23696      7.27338     10.09387         0.007133      0.009491     -0.032996
Pd      9.27214      7.59619     12.77650         0.005504     -0.013623     -0.016952
Pd     11.70406      7.28949     11.45743         0.000917     -0.001030     -0.014158
Pd     11.43435      7.99129      8.85599         0.024868     -0.003250     -0.013391
Pd      7.26307     11.83389     11.94725         0.005250     -0.008029     -0.017585
Pd      8.91728     14.67419      9.33705         0.040146      0.002478      0.017302
Pd      8.41475     12.64576     14.32113        -0.005359     -0.008945      0.000312
Pd     13.56839     14.11709      8.53699         0.087202      0.024292     -0.044895
Pd     11.02326     13.35291      8.53473         0.070237      0.037494      0.043038
Pd     14.10463     11.54736      8.92756        -0.002277      0.020538     -0.008600
Pd      8.62576     14.10061     12.10224         0.009733     -0.003561      0.002467
Pd     12.23968     13.71054     14.03296        -0.007046      0.000590      0.002216
Pd     11.16998     14.42433     11.17099         0.032543     -0.012196      0.047444
Pd     14.04343     13.56177     12.16707        -0.008049      0.014686     -0.000224
Pd     12.30668     12.13627     10.67182         0.008939     -0.025734      0.012766
Pd     12.69332     12.36561      6.70420         0.010635      0.029887     -0.016721
Pd     13.70485      8.94142      7.94179         0.026176      0.003891     -0.005819
Pd      6.87593      8.47466      8.84296         0.006613      0.009912      0.000895
Pd      5.52715      9.95626     11.22669         0.017853      0.023949     -0.051476
Pd      9.17930      9.73903      8.30959         0.023658     -0.031876     -0.019196
Pd      8.81322      7.25014      7.42944        -0.029138     -0.022157     -0.027169
Pd      9.53591     12.08551     10.41965         0.021149      0.004228     -0.009961
Pd     11.56931     10.71384      8.54045         0.013315      0.012173     -0.020701
Pd     11.28740      9.20607      6.43479         0.036937     -0.016083     -0.014073
Pd      9.94281     11.52274      6.37041         0.025243     -0.020323     -0.009043
Ir     11.34888      9.11249     13.32957        -0.002181      0.011988     -0.023650
Ir     13.08653      9.49824     10.39863         0.010331      0.006924     -0.018104
Ir     10.52868     12.34173     12.71041         0.005710     -0.020015      0.027661
Ir      7.17687     10.99256      9.48796         0.038406     -0.019325      0.004465
Ir      8.45295     12.46125      8.16556         0.075874      0.035101     -0.009004
Ir      8.06866      9.29762     11.11106        -0.010486      0.021065     -0.013049
