152
# total energy = -1060.16241458 eVH     10.35389      5.87395      7.64558        -0.312536      0.102110      1.085163
H     10.62451     15.10445      7.64558         0.090548     -0.070479      0.892686
H     10.62451      5.87395     13.33282        -0.272047      0.073634     -0.784200
H     10.35389     15.10445     13.33282         0.097073     -0.302091     -0.822700
H      7.64558     10.35389      5.87395         0.895207     -0.204488      0.206847
H      7.64558     10.62451     15.10445         0.314203     -0.026688     -0.062925
H     13.33282     10.62451      5.87395        -0.885863      0.219611      0.220408
H     13.33282     10.35389     15.10445        -0.282824     -0.030303     -0.059395
H      5.87395      7.64558     10.35389         0.092837      0.422311     -0.010204
H     15.10445      7.64558     10.62451        -0.044918      0.437626     -0.028908
H      5.87395     13.33282     10.62451        -0.015927     -0.969311      0.079001
H     15.10445     13.33282     10.35389        -0.087741     -0.329050      0.001566
H      5.87395     10.35389      7.64558         0.318142      0.062047      0.371501
H     15.10445     10.62451      7.64558        -0.119068     -0.157623      0.668310
H      5.87395     10.62451     13.33282        -0.063623      0.451596     -0.604022
H     15.10445     10.35389     13.33282         0.227458     -0.633187     -0.883765
H     10.35389      7.64558      5.87395        -0.019751      0.499485      0.344832
H     10.62451      7.64558     15.10445         0.327876      0.786904     -0.009106
H     10.62451     13.33282      5.87395         0.149819     -0.568739      0.202815
H     10.35389     13.33282     15.10445         0.033044     -0.290354     -0.165340
H      7.64558      5.87395     10.35389         0.370066      0.113970      0.063195
H      7.64558     15.10445     10.62451         0.389543     -0.127870      0.179405
H     13.33282      5.87395     10.62451        -0.307047      0.137606     -0.014452
H     13.33282     15.10445     10.35389        -0.657776     -0.108969      0.138056
H     12.45634     12.45634     19.01126         0.259186      0.272535     -0.225974
H     19.01126     19.01126     19.01126        -0.248285     -0.267083     -0.244160
H     19.01126     12.45634     12.45634        -0.248974      0.271741      0.236769
H     12.45634     19.01126     12.45634         0.290029     -0.234887      0.235425
C     10.35284      5.61067      6.59456         0.400931     -0.416879     -1.356708
C     10.62556     15.36773      6.59456        -0.171873      0.608919     -0.659841
C     10.62556      5.61067     14.38384         0.365872     -0.273213      0.780506
C     10.35284     15.36773     14.38384        -0.205562      0.224980      1.027591
C      6.59456     10.35284      5.61067        -1.395152      0.032640     -0.227072
C      6.59456     10.62556     15.36773        -0.664118      0.065431      0.356503
C     14.38384     10.62556      5.61067         1.312417     -0.186671     -0.630725
C     14.38384     10.35284     15.36773         0.318951     -0.133536      0.355444
C      5.61067      6.59456     10.35284        -0.273939     -0.671844     -0.030904
C     15.36773      6.59456     10.62556         0.409777     -0.854868      0.027643
C      5.61067     14.38384     10.62556        -0.148769      1.194413     -0.217764
C     15.36773     14.38384     10.35284         0.501382      0.707860     -0.037436
C      5.61067     10.35284      6.59456        -0.370534     -0.102604     -0.773837
C     15.36773     10.62556      6.59456         0.400745      0.107455     -0.676452
C      5.61067     10.62556     14.38384        -0.404506     -0.162552      1.219777
C     15.36773     10.35284     14.38384         0.227986      0.226789      1.412327
C     10.35284      6.59456      5.61067        -0.069261     -0.745117     -0.544908
C     10.62556      6.59456     15.36773        -0.140828     -0.978524      0.375419
C     10.62556     14.38384      5.61067        -0.494798      0.385144     -0.737813
C     10.35284     14.38384     15.36773        -0.173531      0.731863      0.491826
C      6.59456      5.61067     10.35284        -0.562270     -0.336891      0.003491
C      6.59456     15.36773     10.62556        -0.363576      0.445179      0.065732
C     14.38384      5.61067     10.62556         0.435162     -0.310413      0.007727
C     14.38384     15.36773     10.35284         1.129024      0.483060     -0.079913
C     10.40319      3.19606      7.29314        -0.008168      0.794385     -0.339158
C     10.35913      4.25547      6.23373         0.024411     -0.377803      0.292362
C      0.08601      7.29314      7.29314        -0.018266     -0.383135     -0.504170
C      0.13007      6.23373      6.23373        -0.047544      0.875853      0.092753
C      0.08601      3.19606      3.19606        -0.006901      0.696369      0.259874
C      0.13007      4.25547      4.25547         0.047014     -0.267145     -0.548182
C     10.40319      7.29314      3.19606        -0.063836     -1.113908      0.625892
C     10.35913      6.23373      4.25547        -0.047393      0.347961     -0.204226
C      7.29314     10.40319      3.19606        -1.092941     -0.054524      0.202260
C      6.23373     10.35913      4.25547         0.380569      0.102154     -0.524634
C      7.29314      0.08601      7.29314        -0.486005      0.028822     -0.435983
C      6.23373      0.13007      6.23373         0.179357      0.121189      0.119259
C      3.19606      0.08601      3.19606         0.702539      0.022966      0.170109
C      4.25547      0.13007      4.25547        -0.173423     -0.051089     -0.366019
C      3.19606     10.40319      7.29314         0.377674     -0.026870     -0.952193
C      4.25547     10.35913      6.23373        -0.129507     -0.053705      0.115950
C      3.19606      7.29314     10.40319         0.616477     -0.398555      0.002433
C      4.25547      6.23373     10.35913        -0.114614      0.178141      0.010669
C      7.29314      7.29314      0.08601        -0.428976     -0.293126     -0.015104
C      6.23373      6.23373      0.13007         0.147679      0.154523     -0.063579
C      3.19606      3.19606      0.08601         0.293770      0.492956     -0.024761
C      4.25547      4.25547      0.13007        -0.404228     -0.240655     -0.030996
C      7.29314      3.19606     10.40319        -0.283556      0.594051     -0.009342
C      6.23373      4.25547     10.35913         0.016085     -0.093790      0.015547
O     10.43466      3.58206      8.50569        -0.026364      0.070843      0.300571
O     10.54374     17.39634      8.50569         0.063810     -0.122617      0.589411
O     10.54374      3.58206     12.47271         0.029051      0.101667     -0.397712
O     10.43466     17.39634     12.47271         0.094323     -0.062002     -0.436845
O      8.50569     10.43466      3.58206         0.734390     -0.072951      0.016714
O      8.50569     10.54374     17.39634         0.542815      0.063072     -0.103604
O     12.47271     10.54374      3.58206        -0.657460      0.113281      0.211417
O     12.47271     10.43466     17.39634        -0.282586      0.003838      0.037339
O      3.58206      8.50569     10.43466         0.033387      0.444175     -0.064100
O     17.39634      8.50569     10.54374        -0.054624      0.446019      0.056640
O      3.58206     12.47271     10.54374         0.104965     -0.588100      0.003632
O     17.39634     12.47271     10.43466        -0.183157     -0.741120     -0.048013
O      3.58206     10.43466      8.50569         0.207860     -0.060428      0.805548
O     17.39634     10.54374      8.50569        -0.069140      0.070789      0.482893
O      3.58206     10.54374     12.47271        -0.004520     -0.004393     -0.261592
O     17.39634     10.43466     12.47271         0.033686     -0.009820     -0.233998
O     10.43466      8.50569      3.58206        -0.107606      0.532965     -0.100334
O     10.54374      8.50569     17.39634         0.060273      0.511684     -0.082794
O     10.54374     12.47271      3.58206         0.102820     -0.637944      0.129260
O     10.43466     12.47271     17.39634        -0.064794     -0.700587     -0.281610
O      8.50569      3.58206     10.43466         0.396391      0.023137     -0.046622
O      8.50569     17.39634     10.54374         0.639822     -0.154315      0.046028
O     12.47271      3.58206     10.54374        -0.516101      0.121228      0.028586
O     12.47271     17.39634     10.43466        -0.624535     -0.123734      0.041211
O     11.90042     11.90042     19.56718        -0.278151     -0.303253      0.222528
O     19.56718     19.56718     19.56718         0.309731      0.322048      0.298073
O     19.56718     11.90042     11.90042         0.283566     -0.324910     -0.235233
O     11.90042     19.56718     11.90042        -0.314499      0.229597     -0.201333
O      9.45224      1.03696      9.45224        -0.076008      0.089752     -0.077536
O      1.03696      9.45224      9.45224         0.102947     -0.110388     -0.060460
O      1.03696      1.03696      1.03696         0.078955      0.054936      0.098381
O      9.45224      9.45224      1.03696        -0.059069     -0.125176      0.136884
Zr     10.48920      2.52580     10.48920         0.042825     -0.096020      0.122136
Zr     10.48920     18.45260     10.48920        -0.181658      0.247218     -0.360427
Zr     10.48920     10.48920      2.52580         0.113076      0.356334     -0.345504
Zr     10.48920     10.48920     18.45260        -0.080662     -0.260951      0.235298
Zr      2.52580     10.48920     10.48920        -0.241329      0.129362      0.245531
Zr     18.45260     10.48920     10.48920         0.195553     -0.137876     -0.025012
Pd      9.36035     14.30439      9.30857         0.002362      0.026005     -0.028843
Pd      8.59296     13.64607     13.04499         0.010480     -0.000045      0.014978
Pd     12.02512     14.40155      8.74705         0.010669     -0.009938      0.013427
Pd     12.75042     12.87749     10.69105        -0.033501     -0.006674      0.036382
Pd     12.11977      7.19033     12.67589         0.002396     -0.006662     -0.002969
Pd     11.15430     14.90689     11.45041        -0.020228      0.025045     -0.015088
Pd     10.03052     12.55843     11.07999        -0.034238      0.026638     -0.021420
Pd     13.48053     12.15445      7.98528         0.007048      0.005857      0.009469
Pd     11.48061     11.54450      6.10784         0.004956      0.010286     -0.003932
Pd      7.94159      8.37540      7.52251        -0.001458     -0.024076     -0.004936
Pd      8.71821     11.75766      6.84427        -0.003257      0.001214     -0.007941
Pd     10.31908      9.45212      8.15254        -0.018684      0.000179      0.010045
Pd      8.49536     14.46472      6.78854        -0.009513      0.004040     -0.017539
Pd     12.39556      9.02177      6.57286        -0.006164      0.022449      0.027877
Pd      9.71800      9.61081      5.57396         0.003682      0.006341      0.004475
Pd      6.82145      9.45584     12.14209         0.017422      0.007887      0.004384
Pd     12.18027      6.74576      7.95492         0.011649      0.004510      0.005121
Pd      5.91267     10.48297      9.69487        -0.004183     -0.008333      0.008154
Pd      7.55017      7.23902     13.40641         0.001919     -0.006364     -0.012061
Ir     11.73000      9.77312     13.06855        -0.007783     -0.021452     -0.000408
Ir     13.54896      9.05776     11.47783        -0.013004      0.015841      0.013811
Ir      9.42126      8.86655     14.01140        -0.021342     -0.012498      0.006829
Ir     10.50524     11.00525     14.90420        -0.009151     -0.047196      0.080320
Ir      7.26987     12.01494     11.34121         0.002791     -0.004767      0.012224
Ir     14.64519     10.91778     10.15985        -0.021753      0.023027      0.042123
Ir     12.16154     10.57331      9.67713         0.007620     -0.004410     -0.011134
Ir      8.75554     11.00679     12.99026         0.017721      0.041202     -0.014413
Ir     10.10444      9.91853     11.16933        -0.001585      0.009050     -0.030776
Ir     13.72721     11.41872     12.50080        -0.043423      0.002331      0.047333
Ir     11.57161     12.34645     13.09408        -0.083427     -0.028599      0.006453
Ir      8.49654     11.09806      9.33365        -0.004254     -0.002256     -0.000325
Ir     11.59324      8.02691     10.14545         0.011464      0.001073      0.009098
Ir      7.21863     13.03329      8.65816         0.018855      0.014765      0.014387
Ir      9.54838      6.96279      9.23898         0.006976     -0.005147     -0.004260
Ir      8.05226      8.76387     10.05729        -0.005689      0.007697     -0.005963
Ir     10.71991     12.12292      8.50088        -0.000404      0.000545     -0.009091
Ir      9.51385      7.57422     11.75564         0.005000      0.005426      0.002650
Ir     13.66913      8.80167      8.84531         0.019651      0.005909      0.026008
