152
# total energy = -1024.45016072 eVH     10.35389      5.87395      7.64558         0.481905      0.025918      0.746567
H     10.62451     15.10445      7.64558         0.066961     -0.201408      0.624739
H     10.62451      5.87395     13.33282         0.102876      0.148848     -0.586183
H     10.35389     15.10445     13.33282        -0.509285     -0.025020     -0.754987
H      7.64558     10.35389      5.87395         0.350004      0.027164      0.162328
H      7.64558     10.62451     15.10445         0.959821     -0.237734      0.056237
H     13.33282     10.62451      5.87395        -0.801856     -0.134021      0.153345
H     13.33282     10.35389     15.10445        -0.904175     -0.449777      0.213103
H      5.87395      7.64558     10.35389         0.159532      0.723358     -0.306506
H     15.10445      7.64558     10.62451        -0.141632      0.381311     -0.015263
H      5.87395     13.33282     10.62451         0.155751     -0.503027     -0.099830
H     15.10445     13.33282     10.35389        -0.091123     -1.180776      0.113390
H      5.87395     10.35389      7.64558         0.137910      0.169074      0.506882
H     15.10445     10.62451      7.64558         0.005819      0.108117      1.021515
H      5.87395     10.62451     13.33282         0.069887     -0.038724     -0.468516
H     15.10445     10.35389     13.33282        -0.190668     -0.137685     -0.419595
H     10.35389      7.64558      5.87395         0.090542      0.999840      0.222356
H     10.62451      7.64558     15.10445         0.001386      0.270444     -0.156335
H     10.62451     13.33282      5.87395        -0.085672     -0.390184      0.318624
H     10.35389     13.33282     15.10445        -0.433045     -0.567539      0.003700
H      7.64558      5.87395     10.35389         0.544502      0.084313     -0.116492
H      7.64558     15.10445     10.62451         0.957237     -0.201699     -0.209894
H     13.33282      5.87395     10.62451        -0.588894      0.088450     -0.067026
H     13.33282     15.10445     10.35389        -0.578929     -0.064950      0.261347
H     12.45634     12.45634     19.01126         0.237853      0.276752     -0.237152
H     19.01126     19.01126     19.01126        -0.248266     -0.249421     -0.242530
H     19.01126     12.45634     12.45634        -0.267282      0.264632      0.219413
H     12.45634     19.01126     12.45634         0.236804     -0.267213      0.240430
C     10.35284      5.61067      6.59456        -0.223192     -0.678848      0.090128
C     10.62556     15.36773      6.59456        -0.050958      0.378102     -0.847060
C     10.62556      5.61067     14.38384        -0.006350     -0.057574      0.720852
C     10.35284     15.36773     14.38384         0.206565      0.694420      0.166054
C      6.59456     10.35284      5.61067        -0.362384     -0.015128     -0.306602
C      6.59456     10.62556     15.36773        -1.106311      0.260952      0.282370
C     14.38384     10.62556      5.61067         0.441733      0.374970     -0.677248
C     14.38384     10.35284     15.36773         1.107813      0.045464      0.213907
C      5.61067      6.59456     10.35284        -0.435902     -0.367474      0.356442
C     15.36773      6.59456     10.62556         0.188491     -0.496198      0.010210
C      5.61067     14.38384     10.62556        -0.205798      0.543300     -0.009623
C     15.36773     14.38384     10.35284         0.315179      0.041084     -0.112794
C      5.61067     10.35284      6.59456        -0.333540     -0.086684     -0.990281
C     15.36773     10.62556      6.59456         0.898120     -0.342695     -0.951751
C      5.61067     10.62556     14.38384        -0.438105      0.030206      0.299200
C     15.36773     10.35284     14.38384         0.646403     -0.098016      1.045851
C     10.35284      6.59456      5.61067        -0.251795     -0.562889     -0.942452
C     10.62556      6.59456     15.36773         0.062032     -0.256507      0.048581
C     10.62556     14.38384      5.61067         0.059404      1.199171     -0.415232
C     10.35284     14.38384     15.36773         0.276179      0.179459      0.725112
C      6.59456      5.61067     10.35284        -0.188214     -0.736622      0.171003
C      6.59456     15.36773     10.62556        -1.257258      0.243805      0.183209
C     14.38384      5.61067     10.62556         1.082489     -0.299454      0.040704
C     14.38384     15.36773     10.35284        -0.459324      0.784649     -0.405420
C     10.40319      3.19606      7.29314        -0.035928      0.916504     -0.427508
C     10.35913      4.25547      6.23373         0.055929     -0.534744      0.534551
C      0.08601      7.29314      7.29314        -0.021065     -0.394261     -0.347682
C      0.13007      6.23373      6.23373        -0.024447      0.014314      0.097875
C      0.08601      3.19606      3.19606         0.011164      1.273619      0.195746
C      0.13007      4.25547      4.25547        -0.046901     -0.225883     -0.202079
C     10.40319      7.29314      3.19606        -0.014032     -1.056915      0.373678
C     10.35913      6.23373      4.25547         0.042244      0.482862     -0.670101
C      7.29314     10.40319      3.19606        -0.316993      0.028885      0.726923
C      6.23373     10.35913      4.25547         0.139209      0.060164     -0.101000
C      7.29314      0.08601      7.29314        -0.661093     -0.017640     -0.267431
C      6.23373      0.13007      6.23373         0.377316     -0.080966      0.561448
C      3.19606      0.08601      3.19606         1.008357     -0.005402      0.256943
C      4.25547      0.13007      4.25547        -0.169763     -0.036612     -0.527522
C      3.19606     10.40319      7.29314         0.359978     -0.008806     -0.922940
C      4.25547     10.35913      6.23373        -0.272968      0.090534      0.233431
C      3.19606      7.29314     10.40319         0.523227     -1.362195     -0.037084
C      4.25547      6.23373     10.35913        -0.561831      0.727814      0.104561
C      7.29314      7.29314      0.08601        -0.389745     -0.239514      0.003169
C      6.23373      6.23373      0.13007         0.158069      0.153326     -0.001891
C      3.19606      3.19606      0.08601         0.267110      0.242759     -0.016803
C      4.25547      4.25547      0.13007        -0.124152     -0.052251      0.005203
C      7.29314      3.19606     10.40319        -0.397795      0.621223      0.006647
C      6.23373      4.25547     10.35913         1.066334     -0.144576      0.053163
O     10.43466      3.58206      8.50569        -0.023699      0.034606      0.439268
O     10.54374     17.39634      8.50569        -0.006249     -0.115799      0.467792
O     10.54374      3.58206     12.47271         0.040286     -0.106724     -0.129654
O     10.43466     17.39634     12.47271        -0.058386     -0.042992     -0.476913
O      8.50569     10.43466      3.58206         0.288909     -0.028648     -0.039996
O      8.50569     10.54374     17.39634         0.717286      0.028478     -0.204950
O     12.47271     10.54374      3.58206        -0.784903     -0.038146      0.147618
O     12.47271     10.43466     17.39634        -0.288494     -0.030101      0.032427
O      3.58206      8.50569     10.43466         0.160845      1.118109     -0.030040
O     17.39634      8.50569     10.54374        -0.100996      0.442724      0.059284
O      3.58206     12.47271     10.54374         0.067687     -0.396339      0.035454
O     17.39634     12.47271     10.43466        -0.157612     -0.671538     -0.010204
O      3.58206     10.43466      8.50569         0.068713     -0.067967      0.793847
O     17.39634     10.54374      8.50569        -0.062853      0.044065      0.330874
O      3.58206     10.54374     12.47271        -0.012517      0.037506     -0.239706
O     17.39634     10.43466     12.47271        -0.255746     -0.004227     -0.719639
O     10.43466      8.50569      3.58206         0.118976      0.837040      0.191836
O     10.54374      8.50569     17.39634         0.032605      0.597402     -0.141897
O     10.54374     12.47271      3.58206         0.006614     -1.010239      0.175713
O     10.43466     12.47271     17.39634        -0.043470     -0.954203     -0.214085
O      8.50569      3.58206     10.43466         0.566887      0.130676     -0.015770
O      8.50569     17.39634     10.54374         0.503044     -0.193485     -0.010471
O     12.47271      3.58206     10.54374        -0.480519      0.162639      0.059302
O     12.47271     17.39634     10.43466        -0.404468      0.034241     -0.007858
O     11.90042     11.90042     19.56718        -0.269833     -0.325047      0.257404
O     19.56718     19.56718     19.56718         0.277509      0.293405      0.284054
O     19.56718     11.90042     11.90042         0.301860     -0.300419     -0.202820
O     11.90042     19.56718     11.90042        -0.263315      0.285086     -0.248952
O      9.45224      1.03696      9.45224        -0.080199      0.049505     -0.059145
O      1.03696      9.45224      9.45224         0.043057     -0.152898     -0.113480
O      1.03696      1.03696      1.03696         0.025517      0.120611      0.195874
O      9.45224      9.45224      1.03696        -0.069261     -0.086773      0.117493
Zr     10.48920      2.52580     10.48920        -0.051783     -0.126291     -0.168160
Zr     10.48920     18.45260     10.48920         0.007560      0.213939     -0.026061
Zr     10.48920     10.48920      2.52580        -0.168983     -0.194263     -0.511706
Zr     10.48920     10.48920     18.45260         0.008586     -0.027617      0.434412
Zr      2.52580     10.48920     10.48920        -0.370402      0.308784      0.167532
Zr     18.45260     10.48920     10.48920         0.203514      0.066924     -0.202821
Pd      8.28148      9.66023     13.26855        -0.010047     -0.005728     -0.000495
Pd     10.47717      9.42638     10.19861         0.005450      0.014251     -0.002200
Pd     12.97349      8.78659     12.47740        -0.009757      0.013425     -0.003476
Pd     10.29915     10.83364     15.06762        -0.008482     -0.010190      0.001048
Pd     12.76410     11.37101     13.61177        -0.000224     -0.013444      0.000311
Pd     14.84961     10.56111     11.35864        -0.003204     -0.012318      0.003586
Pd      6.90304      7.45144     12.30302        -0.014158      0.002031     -0.000283
Pd      9.20414      7.17665      9.46048        -0.006238     -0.003526      0.013816
Pd      9.59401      7.53755     12.22033        -0.004873     -0.005374      0.001276
Pd     11.75221      7.06700     10.79397         0.004320     -0.010543      0.013022
Pd     11.61142      7.82090      8.25552         0.003768     -0.005805     -0.001982
Pd      7.17985     11.66040     11.52446        -0.008570     -0.000917      0.002551
Pd      9.27489     14.31200      9.24281         0.004002     -0.008040      0.004968
Pd      8.11432     12.30133     14.01538         0.000344     -0.013110     -0.010798
Pd     14.22726     14.16248      8.35799        -0.008968      0.001028     -0.002641
Pd     11.72887     13.27236      8.79907        -0.011148      0.009863      0.009797
Pd     14.10106     11.58943      9.02105        -0.001944     -0.004092     -0.001302
Pd      8.68226     13.98135     11.98791         0.005402     -0.005642      0.001322
Pd     12.22217     14.01765     13.92129        -0.010630      0.009175      0.014453
Pd     11.40162     14.13686     11.28336        -0.010040     -0.009019      0.004012
Pd     13.99843     13.24483     12.09433         0.006286     -0.005832     -0.008708
Pd     12.26402     11.48212     10.92525        -0.003363     -0.008588      0.009433
Pd     13.00793     12.58562      6.60552        -0.003117     -0.000687     -0.013866
Pd     13.95270      8.83675      7.58172         0.004866     -0.002679     -0.012289
Pd      6.96150      8.43661      8.38506         0.001658     -0.003272      0.005394
Pd      5.55332     10.01072     10.07184         0.001564     -0.005608     -0.004233
Pd      9.38327      9.44560      7.44016         0.001807     -0.004631      0.005138
Pd      8.47055      6.95420      6.86062         0.002130      0.000716      0.017749
Pd      9.67343     11.94308     10.50914        -0.003746      0.001505      0.011301
Pd     11.78018     10.60294      8.06880        -0.023522     -0.012019     -0.007190
Pd     11.79330      8.93506      5.85126        -0.006632     -0.006751      0.005471
Pd     10.61831     11.33355      5.73695        -0.015241      0.005155      0.003456
Ir     10.72091      9.85875     12.70356         0.005211      0.005912      0.003683
Ir     13.13168      9.22435      9.95171        -0.002373      0.012836      0.023412
Ir     10.46551     12.31327     12.88906        -0.000544     -0.000296     -0.019371
Ir      7.76263     10.94350      9.06597        -0.006646     -0.002222      0.003853
Ir      9.55815     12.04918      7.95333        -0.002639      0.000708      0.007260
Ir      8.00217      9.15070     10.74255        -0.011933      0.002930     -0.003449
