37
# total energy = -244.53972981 eVH      6.49490     11.07200      7.49840         0.000000     -0.007577     -0.000000
H      6.49490      1.91780      7.49840         0.000000      0.007577     -0.000000
H      1.91780      6.49490      7.49840         0.007577     -0.000000      0.000000
H     11.07200      6.49490      7.49840        -0.007577      0.000000     -0.000000
C      6.49490      9.98459      7.49840         0.000000     -0.006237     -0.000000
C      6.49490      3.00521      7.49840         0.000000      0.006237     -0.000000
C      3.00521      6.49490      7.49840         0.006237      0.000000     -0.000000
C      9.98459      6.49490      7.49840        -0.006237     -0.000000     -0.000000
C      3.52799      7.81265      7.49840        -0.015965     -0.004369      0.000000
C      9.46181      5.17715      7.49840         0.015965      0.004369     -0.000000
C      5.17715      3.52799      7.49840         0.004369     -0.015965     -0.000000
C      7.81265      9.46181      7.49840        -0.004369      0.015965     -0.000000
C      9.46181      7.81265      7.49840         0.015965     -0.004369      0.000000
C      3.52799      5.17715      7.49840        -0.015965      0.004369      0.000000
C      7.81265      3.52799      7.49840        -0.004369     -0.015965     -0.000000
C      5.17715      9.46181      7.49840         0.004369      0.015965      0.000000
C     12.25562      0.73418      7.49840        -0.001966      0.001966     -0.000000
C      0.73418     12.25562      7.49840         0.001966     -0.001966      0.000000
C     12.25562     12.25562      7.49840        -0.001966     -0.001966     -0.000000
C      0.73418      0.73418      7.49840         0.001966      0.001966     -0.000000
N      4.88354      8.10626      7.49840        -0.004627      0.004627      0.000000
N      8.10626      4.88354      7.49840         0.004627     -0.004627     -0.000000
N      4.88354      4.88354      7.49840        -0.004627     -0.004627     -0.000000
N      8.10626      8.10626      7.49840         0.004627      0.004627     -0.000000
O      8.67720     10.40165      7.49840         0.001431      0.008471     -0.000000
O      4.31260      2.58815      7.49840        -0.001431     -0.008471      0.000000
O      2.58815      8.67720      7.49840        -0.008471      0.001431      0.000000
O     10.40165      4.31260      7.49840         0.008471     -0.001431     -0.000000
O      4.31260     10.40165      7.49840        -0.001431      0.008471      0.000000
O      8.67720      2.58815      7.49840         0.001431     -0.008471     -0.000000
O     10.40165      8.67720      7.49840         0.008471      0.001431     -0.000000
O      2.58815      4.31260      7.49840        -0.008471     -0.001431      0.000000
Au     10.89326      2.09654      7.49840         0.016009     -0.016009      0.000000
Au      2.09654     10.89326      7.49840        -0.016009      0.016009     -0.000000
Au     10.89326     10.89326      7.49840         0.016009      0.016009     -0.000000
Au      2.09654      2.09654      7.49840        -0.016009     -0.016009      0.000000
Au      6.49490      6.49490      7.49840         0.000000      0.000000     -0.000000
