152
# total energy = -1059.97693150 eVH     10.35389      5.87395      7.64558        -0.255467     -0.011390      1.149604
H     10.62451     15.10445      7.64558         0.026190     -0.094235      0.922358
H     10.62451      5.87395     13.33282        -0.230551      0.092133     -0.789629
H     10.35389     15.10445     13.33282         0.091837     -0.294743     -0.903421
H      7.64558     10.35389      5.87395         0.925587     -0.100019      0.183251
H      7.64558     10.62451     15.10445         0.340766     -0.047993     -0.078625
H     13.33282     10.62451      5.87395        -0.869603      0.206280      0.202112
H     13.33282     10.35389     15.10445        -0.277050     -0.010529     -0.069170
H      5.87395      7.64558     10.35389         0.088846      0.412640     -0.022137
H     15.10445      7.64558     10.62451         0.023533      0.524676     -0.039185
H      5.87395     13.33282     10.62451        -0.016577     -0.962953      0.077319
H     15.10445     13.33282     10.35389        -0.073491     -0.319319      0.002852
H      5.87395     10.35389      7.64558         0.266366      0.120051      0.421156
H     15.10445     10.62451      7.64558        -0.128143     -0.176889      0.645881
H      5.87395     10.62451     13.33282        -0.097361      0.465362     -0.611780
H     15.10445     10.35389     13.33282         0.275552     -0.672221     -0.804066
H     10.35389      7.64558      5.87395        -0.048247      0.483527      0.331757
H     10.62451      7.64558     15.10445         0.207442      0.747285     -0.053025
H     10.62451     13.33282      5.87395         0.117034     -0.553000      0.202819
H     10.35389     13.33282     15.10445         0.048572     -0.286396     -0.131672
H      7.64558      5.87395     10.35389         0.337587      0.088821      0.004110
H      7.64558     15.10445     10.62451         0.366530     -0.110906      0.152636
H     13.33282      5.87395     10.62451        -0.316760      0.124892     -0.038011
H     13.33282     15.10445     10.35389        -0.652820     -0.134742      0.142856
H     12.45634     12.45634     19.01126         0.254224      0.270582     -0.230281
H     19.01126     19.01126     19.01126        -0.245473     -0.269071     -0.245119
H     19.01126     12.45634     12.45634        -0.252229      0.268854      0.235073
H     12.45634     19.01126     12.45634         0.290211     -0.236006      0.233831
C     10.35284      5.61067      6.59456         0.395713     -0.435015     -1.470792
C     10.62556     15.36773      6.59456        -0.164670      0.557804     -0.621533
C     10.62556      5.61067     14.38384         0.390996     -0.349897      0.853610
C     10.35284     15.36773     14.38384        -0.235730      0.216366      1.115812
C      6.59456     10.35284      5.61067        -1.368903      0.017204     -0.254178
C      6.59456     10.62556     15.36773        -0.658074      0.058439      0.386689
C     14.38384     10.62556      5.61067         1.296294     -0.169493     -0.613608
C     14.38384     10.35284     15.36773         0.387791     -0.119513      0.354630
C      5.61067      6.59456     10.35284        -0.302791     -0.603821     -0.004369
C     15.36773      6.59456     10.62556         0.417103     -1.031411      0.028156
C      5.61067     14.38384     10.62556        -0.115881      1.158947     -0.180977
C     15.36773     14.38384     10.35284         0.453800      0.640799     -0.026199
C      5.61067     10.35284      6.59456        -0.358426     -0.103112     -0.704778
C     15.36773     10.62556      6.59456         0.424765      0.122321     -0.772029
C      5.61067     10.62556     14.38384        -0.383463     -0.177827      1.229406
C     15.36773     10.35284     14.38384         0.288358      0.199030      1.546131
C     10.35284      6.59456      5.61067        -0.049800     -0.715247     -0.651463
C     10.62556      6.59456     15.36773        -0.091079     -0.815623      0.342967
C     10.62556     14.38384      5.61067        -0.446434      0.427170     -0.691360
C     10.35284     14.38384     15.36773        -0.152155      0.586373      0.405321
C      6.59456      5.61067     10.35284        -0.488274     -0.340981      0.054139
C      6.59456     15.36773     10.62556        -0.412948      0.476909      0.046033
C     14.38384      5.61067     10.62556         0.447194     -0.395263      0.006883
C     14.38384     15.36773     10.35284         1.123685      0.513518     -0.071041
C     10.40319      3.19606      7.29314         0.003530      0.617936     -0.336559
C     10.35913      4.25547      6.23373        -0.002596     -0.454496      0.294947
C      0.08601      7.29314      7.29314        -0.013786     -0.350723     -0.491345
C      0.13007      6.23373      6.23373        -0.085267      0.812932      0.064600
C      0.08601      3.19606      3.19606        -0.001261      0.661341      0.271795
C      0.13007      4.25547      4.25547         0.019701     -0.272716     -0.506589
C     10.40319      7.29314      3.19606        -0.067990     -1.156770      0.539379
C     10.35913      6.23373      4.25547        -0.038083      0.381066     -0.190212
C      7.29314     10.40319      3.19606        -1.077430     -0.057795      0.181290
C      6.23373     10.35913      4.25547         0.361633      0.078972     -0.535012
C      7.29314      0.08601      7.29314        -0.399254      0.035083     -0.589425
C      6.23373      0.13007      6.23373         0.177474      0.134959      0.135124
C      3.19606      0.08601      3.19606         0.693479      0.024453      0.165787
C      4.25547      0.13007      4.25547        -0.167641     -0.051665     -0.367683
C      3.19606     10.40319      7.29314         0.384271     -0.023780     -0.858275
C      4.25547     10.35913      6.23373        -0.168939     -0.088243      0.094475
C      3.19606      7.29314     10.40319         0.596539     -0.381381      0.000022
C      4.25547      6.23373     10.35913        -0.125919      0.178759     -0.000061
C      7.29314      7.29314      0.08601        -0.399648     -0.336357     -0.015319
C      6.23373      6.23373      0.13007         0.210827      0.199622     -0.051128
C      3.19606      3.19606      0.08601         0.291303      0.481920     -0.022809
C      4.25547      4.25547      0.13007        -0.393825     -0.221621     -0.028480
C      7.29314      3.19606     10.40319        -0.283497      0.585684     -0.015252
C      6.23373      4.25547     10.35913         0.000698     -0.137233      0.023538
O     10.43466      3.58206      8.50569        -0.031428      0.109011      0.336445
O     10.54374     17.39634      8.50569         0.069521     -0.136896      0.590015
O     10.54374      3.58206     12.47271         0.026338      0.109620     -0.389953
O     10.43466     17.39634     12.47271         0.088511     -0.044648     -0.354872
O      8.50569     10.43466      3.58206         0.715074     -0.060230      0.017683
O      8.50569     10.54374     17.39634         0.434606      0.051301     -0.065086
O     12.47271     10.54374      3.58206        -0.651769      0.110825      0.202991
O     12.47271     10.43466     17.39634        -0.294238     -0.004148      0.006888
O      3.58206      8.50569     10.43466         0.048360      0.461794     -0.063735
O     17.39634      8.50569     10.54374        -0.062037      0.467955      0.053550
O      3.58206     12.47271     10.54374         0.111961     -0.585781      0.003609
O     17.39634     12.47271     10.43466        -0.164139     -0.731683     -0.064016
O      3.58206     10.43466      8.50569         0.219273     -0.064802      0.776830
O     17.39634     10.54374      8.50569        -0.128500      0.079109      0.622932
O      3.58206     10.54374     12.47271         0.001973     -0.000930     -0.272683
O     17.39634     10.43466     12.47271         0.044304     -0.014204     -0.206381
O     10.43466      8.50569      3.58206        -0.106850      0.582880     -0.113144
O     10.54374      8.50569     17.39634         0.060530      0.502847     -0.107085
O     10.54374     12.47271      3.58206         0.104164     -0.620864      0.134242
O     10.43466     12.47271     17.39634        -0.062388     -0.617783     -0.230156
O      8.50569      3.58206     10.43466         0.401415      0.031587     -0.029981
O      8.50569     17.39634     10.54374         0.627288     -0.150434      0.051063
O     12.47271      3.58206     10.54374        -0.509316      0.125468      0.037624
O     12.47271     17.39634     10.43466        -0.621199     -0.143508      0.033119
O     11.90042     11.90042     19.56718        -0.275475     -0.309840      0.238364
O     19.56718     19.56718     19.56718         0.300775      0.319604      0.298265
O     19.56718     11.90042     11.90042         0.285643     -0.325177     -0.230730
O     11.90042     19.56718     11.90042        -0.318708      0.230632     -0.202227
O      9.45224      1.03696      9.45224        -0.084208      0.078862     -0.068991
O      1.03696      9.45224      9.45224         0.094703     -0.115571     -0.045772
O      1.03696      1.03696      1.03696         0.080002      0.053879      0.101435
O      9.45224      9.45224      1.03696        -0.058735     -0.130282      0.130325
Zr     10.48920      2.52580     10.48920         0.034315     -0.082964      0.058899
Zr     10.48920     18.45260     10.48920        -0.169604      0.263794     -0.339145
Zr     10.48920     10.48920      2.52580         0.124080      0.356197     -0.357078
Zr     10.48920     10.48920     18.45260        -0.076762     -0.182842      0.172219
Zr      2.52580     10.48920     10.48920        -0.248734      0.124620      0.216022
Zr     18.45260     10.48920     10.48920         0.232345     -0.107689      0.019367
Pd      9.37802     14.19572      9.41703         0.012240      0.041865     -0.024243
Pd      8.63699     13.71269     12.98810         0.000589     -0.007544     -0.014606
Pd     12.00329     14.41603      8.76689         0.014137      0.008102     -0.021286
Pd     12.79723     12.78717     10.59558        -0.011255      0.034236      0.010774
Pd     12.18219      7.09889     12.61075        -0.030091      0.009941      0.013484
Pd     11.26455     14.77870     11.55867        -0.042466      0.037099     -0.038112
Pd     10.13639     12.44073     11.18059        -0.031972      0.014397     -0.047690
Pd     13.46982     12.13120      7.96766         0.011262      0.007101      0.004350
Pd     11.46646     11.54671      6.12526         0.008452      0.008051     -0.016301
Pd      7.83295      8.60263      7.56754         0.016899     -0.028010     -0.021844
Pd      8.75250     11.72597      6.91101        -0.011823     -0.002320     -0.016145
Pd     10.31513      9.45032      8.13532         0.001358      0.019248      0.019934
Pd      8.50366     14.42091      6.90163         0.017748      0.008257     -0.029390
Pd     12.37097      9.02491      6.57037        -0.004197      0.008070      0.018429
Pd      9.73841      9.59865      5.55315        -0.001285      0.002877      0.013589
Pd      6.88863      9.46965     12.19380        -0.020067     -0.003597     -0.011673
Pd     12.21318      6.66204      7.83501        -0.000136      0.017564      0.026176
Pd      5.96720     10.50642      9.74904        -0.002409     -0.039612     -0.027055
Pd      7.55713      7.07906     13.12650         0.037175      0.050086      0.101090
Ir     11.85629      9.69004     13.05955        -0.020305      0.009439      0.005525
Ir     13.60375      8.96895     11.42046        -0.016355      0.010434      0.013608
Ir      9.43234      8.79859     13.77665         0.004002      0.003674      0.061585
Ir     10.58880     10.92532     14.82756        -0.013776     -0.000806      0.036065
Ir      7.32860     12.05795     11.38058        -0.023596     -0.020379      0.005317
Ir     14.71710     10.80027     10.03857        -0.007145      0.012937      0.029544
Ir     12.21236     10.44127      9.64882        -0.005516      0.029021      0.016388
Ir      8.77849     11.04760     13.05317        -0.015183      0.021593     -0.035839
Ir     10.17346      9.81548     11.26526        -0.030965      0.037947     -0.041705
Ir     13.83457     11.34567     12.35698        -0.057866      0.002822      0.021267
Ir     11.75869     12.29823     13.12235        -0.070849     -0.001224     -0.010384
Ir      8.55243     11.05124      9.41751         0.005906     -0.008276     -0.006599
Ir     11.60325      7.94900     10.04109         0.011022      0.028660      0.013312
Ir      7.21381     12.94775      8.69079         0.009597      0.053143      0.002640
Ir      9.50604      6.99714      9.06018         0.005388     -0.002581      0.001001
Ir      8.09467      8.72626     10.12688        -0.033869      0.039774     -0.017073
Ir     10.77145     12.07295      8.56643        -0.004183      0.013334     -0.020995
Ir      9.61673      7.35928     11.61429        -0.033174      0.020339      0.040387
Ir     13.70599      8.65285      8.77569        -0.016275      0.032317      0.023873
