15
# total energy = -112.36427028 eVC      1.36948     -0.00046     10.00000         1.360457      0.069893      0.000000
C      5.36171      3.88916     10.00000        -1.360457     -0.069893      0.000000
C      6.04591     -2.69977     10.00000        -0.637627      1.215171     -0.000000
C      0.68528      6.58848     10.00000         0.637627     -1.215171      0.000000
C      6.04690      2.70291     10.00000        -0.682730     -1.154079      0.000000
C      0.68429      1.18580     10.00000         0.682730      1.154079      0.000000
O      1.38223      2.39490     10.00000        -0.330713     -0.571035      0.000000
O      5.34897      1.49380     10.00000         0.330713      0.571035      0.000000
O      3.96585      3.88787     10.00000         0.650917      0.006520      0.000000
O      2.76534      0.00084     10.00000        -0.650917     -0.006520      0.000000
O      1.38245      5.37914     10.00000        -0.319643      0.564606      0.000000
O      5.34874     -1.49044     10.00000         0.319643     -0.564606      0.000000
Ir      3.36560      1.94435     10.00000         0.000000     -0.000000      0.000000
Ir      3.36560     -1.94266     10.00000         0.000000     -0.000000      0.000000
Ir     -0.00000      3.88701     10.00000         0.000000     -0.000000      0.000000
