10
# total energy = -69.73377336 eVH      2.08924      1.01985      7.50000         0.011880      0.005799      0.000000
H      3.19419      1.55922      7.50000        -0.011880     -0.005799      0.000000
C      4.14373      2.02273      7.50000        -0.004810     -0.002348     -0.000000
C      1.13971      0.55634      7.50000         0.004810      0.002348     -0.000000
N      0.10189      1.38671      7.50000        -0.001840     -0.004162      0.000000
N      5.18154      1.19236      7.50000         0.001840      0.004162      0.000000
N      1.15598     -0.77268      7.50000        -0.004413      0.001109      0.000000
N      4.12745      3.35175      7.50000         0.004413     -0.001109      0.000000
Ir      2.64172     -2.06111      7.50000         0.000000      0.000000      0.000000
Ir     -0.00000      3.35065      7.50000         0.000000      0.000000      0.000000
