152
# total energy = -1093.14895025 eVH     10.35389      5.87395      7.64558         0.036155     -0.117096      1.243286
H     10.62451     15.10445      7.64558        -0.199399      0.079368      1.400902
H     10.62451      5.87395     13.33282         0.140056     -0.042491     -1.093750
H     10.35389     15.10445     13.33282         0.024574     -0.045161     -0.887219
H      7.64558     10.35389      5.87395         0.515195      0.024243     -0.083227
H      7.64558     10.62451     15.10445         0.401192     -0.000923      0.003163
H     13.33282     10.62451      5.87395        -0.665273     -0.036405      0.004667
H     13.33282     10.35389     15.10445        -0.430786     -0.009618     -0.010631
H      5.87395      7.64558     10.35389        -0.142841      1.354069      0.059061
H     15.10445      7.64558     10.62451        -0.014118      0.467499      0.033566
H      5.87395     13.33282     10.62451        -0.070189     -0.228717      0.036884
H     15.10445     13.33282     10.35389         0.201071     -1.564121      0.116792
H      5.87395     10.35389      7.64558        -0.098105     -0.718707      0.489462
H     15.10445     10.62451      7.64558         0.459307      0.815366      0.172745
H      5.87395     10.62451     13.33282        -0.017328     -0.192755     -0.270356
H     15.10445     10.35389     13.33282        -0.062320      0.228181     -0.157200
H     10.35389      7.64558      5.87395        -0.139885      0.417744      0.058301
H     10.62451      7.64558     15.10445         0.047903      0.517767      0.269007
H     10.62451     13.33282      5.87395         0.060206     -0.426921     -0.187931
H     10.35389     13.33282     15.10445        -0.145493     -0.544910      0.191437
H      7.64558      5.87395     10.35389         0.478173     -0.032737     -0.046140
H      7.64558     15.10445     10.62451         0.299379      0.026463     -0.028893
H     13.33282      5.87395     10.62451        -0.198542     -0.086433     -0.010881
H     13.33282     15.10445     10.35389        -0.507758      0.104384     -0.021968
H     12.45634     12.45634     19.01126         0.265645      0.247039     -0.244406
H     19.01126     19.01126     19.01126        -0.262392     -0.242796     -0.251963
H     19.01126     12.45634     12.45634        -0.264385      0.262475      0.233060
H     12.45634     19.01126     12.45634         0.274485     -0.254967      0.226675
C     10.35284      5.61067      6.59456        -0.176716     -0.298781     -1.776469
C     10.62556     15.36773      6.59456         0.452837      0.115128     -1.862152
C     10.62556      5.61067     14.38384        -0.342934     -0.126393      1.705438
C     10.35284     15.36773     14.38384         0.240347      0.150879      1.645654
C      6.59456     10.35284      5.61067        -0.908191     -0.113532     -0.310816
C      6.59456     10.62556     15.36773        -0.818596     -0.007388      0.111981
C     14.38384     10.62556      5.61067         1.026206      0.036953     -0.228174
C     14.38384     10.35284     15.36773         0.777683     -0.020248      0.174231
C      5.61067      6.59456     10.35284        -0.082135     -1.642377      0.058380
C     15.36773      6.59456     10.62556         0.302221     -0.929944      0.036098
C      5.61067     14.38384     10.62556        -0.408245      0.783053      0.037512
C     15.36773     14.38384     10.35284         0.048127      1.823577     -0.081332
C      5.61067     10.35284      6.59456        -0.735856      0.259922     -1.827215
C     15.36773     10.62556      6.59456         0.747405     -0.211977     -1.960323
C      5.61067     10.62556     14.38384        -0.672617      0.093055      1.644286
C     15.36773     10.35284     14.38384         0.576480     -0.064161      1.416914
C     10.35284      6.59456      5.61067         0.031311     -1.569736     -0.763541
C     10.62556      6.59456     15.36773        -0.046167     -1.886181      0.720845
C     10.62556     14.38384      5.61067         0.089857      1.826289     -0.847787
C     10.35284     14.38384     15.36773         0.034748      1.862103      0.635521
C      6.59456      5.61067     10.35284        -0.850834     -0.822162     -0.031804
C      6.59456     15.36773     10.62556        -1.025963      0.565955      0.069389
C     14.38384      5.61067     10.62556         0.975722     -0.708108      0.089559
C     14.38384     15.36773     10.35284         0.885532      0.910142      0.003964
C     10.40319      3.19606      7.29314        -0.004669      0.534903     -0.565599
C     10.35913      4.25547      6.23373        -0.012792     -0.835676      0.530146
C      0.08601      7.29314      7.29314         0.016031     -0.460477     -0.573509
C      0.13007      6.23373      6.23373         0.055818      0.854945      0.443424
C      0.08601      3.19606      3.19606         0.026694      0.687960      0.453017
C      0.13007      4.25547      4.25547        -0.042516     -0.739783     -0.487205
C     10.40319      7.29314      3.19606        -0.013302     -0.772613      0.481994
C     10.35913      6.23373      4.25547         0.013293      0.572634     -0.509315
C      7.29314     10.40319      3.19606        -0.307603     -0.007119      0.520206
C      6.23373     10.35913      4.25547         0.185307     -0.076368     -0.156594
C      7.29314      0.08601      7.29314        -0.246381     -0.031395     -0.390887
C      6.23373      0.13007      6.23373         0.154144     -0.096330      0.373241
C      3.19606      0.08601      3.19606         0.408777      0.011812      0.462412
C      4.25547      0.13007      4.25547        -0.200069      0.070712     -0.207608
C      3.19606     10.40319      7.29314         0.230077      0.031278     -0.485176
C      4.25547     10.35913      6.23373        -0.179605      0.108659      0.358656
C      3.19606      7.29314     10.40319         0.177029     -0.316022      0.006017
C      4.25547      6.23373     10.35913        -0.582399      0.183683      0.052857
C      7.29314      7.29314      0.08601        -0.585864     -0.466192      0.003223
C      6.23373      6.23373      0.13007         0.119769      0.203477     -0.058181
C      3.19606      3.19606      0.08601         0.561622      0.445660      0.003187
C      4.25547      4.25547      0.13007        -0.063286     -0.099784     -0.032681
C      7.29314      3.19606     10.40319        -0.215843      0.350363      0.005967
C      6.23373      4.25547     10.35913         0.616042     -0.253001      0.017427
O     10.43466      3.58206      8.50569         0.015879      0.234772      0.492183
O     10.54374     17.39634      8.50569        -0.029082     -0.239739      0.515950
O     10.54374      3.58206     12.47271         0.080775      0.158668     -0.388945
O     10.43466     17.39634     12.47271        -0.103233     -0.130153     -0.362530
O      8.50569     10.43466      3.58206         0.408683     -0.020958      0.072574
O      8.50569     10.54374     17.39634         0.462058      0.059698     -0.122096
O     12.47271     10.54374      3.58206        -0.503484     -0.009692      0.104504
O     12.47271     10.43466     17.39634        -0.425663     -0.052685     -0.109738
O      3.58206      8.50569     10.43466         0.168476      0.422815     -0.053058
O     17.39634      8.50569     10.54374        -0.087694      0.563451      0.047318
O      3.58206     12.47271     10.54374         0.049223     -0.526802      0.040547
O     17.39634     12.47271     10.43466        -0.177257     -0.458538     -0.023126
O      3.58206     10.43466      8.50569         0.182029     -0.015991      0.484942
O     17.39634     10.54374      8.50569        -0.126187     -0.010652      0.459467
O      3.58206     10.54374     12.47271         0.175879      0.087842     -0.467901
O     17.39634     10.43466     12.47271        -0.195528     -0.079515     -0.537996
O     10.43466      8.50569      3.58206         0.049092      0.641654      0.269192
O     10.54374      8.50569     17.39634         0.056891      0.489611     -0.208607
O     10.54374     12.47271      3.58206        -0.017291     -0.640418      0.269082
O     10.43466     12.47271     17.39634        -0.032391     -0.530078     -0.223571
O      8.50569      3.58206     10.43466         0.515744      0.150832     -0.030261
O      8.50569     17.39634     10.54374         0.620073     -0.096500      0.044581
O     12.47271      3.58206     10.54374        -0.630029      0.107604      0.031357
O     12.47271     17.39634     10.43466        -0.488637     -0.140350     -0.017033
O     11.90042     11.90042     19.56718        -0.309367     -0.283349      0.270699
O     19.56718     19.56718     19.56718         0.313337      0.271394      0.289665
O     19.56718     11.90042     11.90042         0.321434     -0.308954     -0.236376
O     11.90042     19.56718     11.90042        -0.329411      0.281659     -0.225171
O      9.45224      1.03696      9.45224        -0.034779      0.059082     -0.066039
O      1.03696      9.45224      9.45224         0.033271     -0.080043     -0.059666
O      1.03696      1.03696      1.03696         0.030894      0.050853      0.131420
O      9.45224      9.45224      1.03696        -0.027268     -0.086212      0.133007
Zr     10.48920      2.52580     10.48920        -0.103558     -0.127669     -0.007684
Zr     10.48920     18.45260     10.48920         0.116042      0.188653     -0.099894
Zr     10.48920     10.48920      2.52580        -0.004792      0.100888     -0.321366
Zr     10.48920     10.48920     18.45260        -0.025702     -0.019120      0.147656
Zr      2.52580     10.48920     10.48920        -0.040060     -0.027868     -0.054408
Zr     18.45260     10.48920     10.48920         0.100160      0.108586     -0.141917
Pd     12.95233      8.08744      7.63615        -0.037740     -0.003929     -0.012385
Pd      9.57406     14.57189     11.76085        -0.003252      0.002376     -0.003048
Pd     12.32312     10.88672     10.42354        -0.015454     -0.007157     -0.017812
Pd     14.64769      9.98151     11.58688         0.014189     -0.002855      0.014208
Pd     10.94282      9.31285      6.15050         0.000241      0.035778     -0.018559
Pd      6.91106      8.51612      8.96810        -0.023332      0.018751      0.014079
Ir     10.25419     11.84798     11.75838         0.004868     -0.034561      0.027547
Ir     12.90181      8.27992     10.30743        -0.011631     -0.021680      0.016260
Ir     12.29522     10.98579      7.72821         0.004473     -0.002480      0.010769
Ir      9.68950     14.38590      9.17188        -0.024270      0.025011     -0.040270
Ir     10.78608      9.18141     11.70095        -0.020121      0.002760      0.039691
Ir      8.68185     10.06987      7.75794         0.033176      0.046098     -0.013820
Ir     13.86707     12.51193      9.04140        -0.019132     -0.016979      0.016208
Ir     11.97050     13.56928      7.82252        -0.016360     -0.001015     -0.013540
Ir     14.29423      9.89928      9.01720        -0.004553     -0.004085     -0.008211
Ir      9.19535      7.43502     10.37634        -0.011279      0.018552      0.006836
Ir      8.16090     12.75100      7.83857         0.000594     -0.007801     -0.020533
Ir      9.14527      7.59627      7.81057        -0.033015     -0.021818     -0.042988
Ir     11.86147     13.49937     13.03520        -0.011743      0.006677     -0.007406
Ir     11.37944      6.68518     11.70576        -0.016171     -0.006019     -0.033983
Ir     10.23718     11.81917      9.08303         0.009477     -0.060002     -0.069853
Ir     12.88375      8.31319     12.96978         0.001497      0.003758     -0.013326
Ir     10.80910      9.15253      8.97422         0.011037      0.049068      0.002494
Ir     11.79612     13.57531     10.42059         0.005370      0.027638     -0.006169
Ir     13.83427     12.60679     11.79123         0.006948     -0.029917     -0.018062
Ir     12.37379     10.97389     13.08259        -0.032243     -0.016486      0.007734
Ir     10.12180     11.71401      6.49254        -0.025426     -0.025861      0.049194
Ir     11.30759      6.57711      9.20138        -0.001772     -0.017139     -0.023007
Ir      7.17460      8.36860     11.78473         0.029436     -0.009866      0.009243
Ir      8.17694     12.71087     10.43892        -0.034241      0.015108     -0.002870
Ir     10.86642      9.26031     14.26076         0.017061     -0.003781     -0.003936
Ir      8.08691     12.53829     12.99934         0.004218     -0.003204     -0.034555
Ir      6.57011     11.24700      9.07947        -0.006701      0.025228      0.009608
Ir      8.64477     10.03983     13.04686        -0.006424      0.025336      0.005340
Ir      6.57116     10.92490     11.54522         0.008525     -0.031930     -0.038851
Ir      9.11569      7.46474     13.02612        -0.015647      0.005702      0.008867
Ir     10.19094     11.65183     14.36411         0.006297     -0.027100     -0.034093
Ir      8.70327     10.05730     10.39270        -0.010446      0.027810      0.042823
