35
# total energy = -301.58417629 eVC      6.68731     10.29612      7.66184         0.020316      0.004908     -0.021716
C      8.07566      9.94790      7.58364        -0.029258     -0.019684     -0.002116
C      9.41749      5.71272      7.64741        -0.001148      0.011558     -0.015185
C      1.46314      5.34656      7.68076         0.027675     -0.049761      0.016480
C      4.19355      0.76116      7.64000        -0.017055     -0.002710     -0.020563
C      2.80457      1.10810      7.56863         0.041069      0.053157     -0.013555
C      0.70422      4.16454      7.65397         0.012753      0.006356     -0.013589
C      1.08717      2.78554      7.57624        -0.001756      0.040710      0.005186
C      5.35595      1.54953      7.63918        -0.003771      0.025368     -0.008256
C      5.52500      9.50839      7.68687         0.001351     -0.014270      0.019762
C     10.17718      6.89396      7.64629         0.006619      0.001370     -0.014992
C      9.79617      8.27341      7.57521        -0.036273     -0.036351     -0.005663
C      0.77646      6.57559      7.65287         0.051808      0.003998     -0.006749
C      1.26432      7.92108      7.57806         0.045059      0.005558      0.013503
C     10.10510      4.48321      7.64275        -0.068545     -0.007479     -0.005475
C      9.61848      3.13756      7.55970        -0.040926     -0.017458     -0.003306
C      4.27809     10.16401      7.66021         0.027090     -0.048542     -0.009556
C      2.94520      9.64320      7.58246        -0.005346     -0.040008      0.011791
C      6.60248      0.89315      7.63528         0.005292      0.063453     -0.004850
C      7.93616      1.41310      7.55342        -0.004818      0.041268      0.004753
N      8.80678      0.32508      7.47138         0.018689     -0.005807      0.012787
N      0.15701      8.76577      7.48559        -0.010720      0.006214      0.011701
N      8.54678      8.71073      7.60055        -0.044224     -0.028906      0.030345
N      2.33587      2.34691      7.59441         0.053142     -0.006376      0.029407
N      2.07350     10.72944      7.49095        -0.011028      0.022435      0.010960
N     10.72726      2.29341      7.47974         0.018042     -0.012936      0.004219
N      2.57830      8.31982      7.59400         0.010845     -0.004839      0.050513
N      8.30443      2.73688      7.56074        -0.012757     -0.001452      0.037457
O      5.32361      2.87828      7.58723         0.062848      0.027852     -0.027871
O      5.55920      8.17909      7.71206        -0.056395     -0.012130      0.023731
O      8.08880      5.71303      7.59723        -0.035694     -0.062491     -0.031888
O      2.79307      5.34470      7.70847         0.007523      0.069851      0.022629
Zr      6.54278      4.45578      7.50951        -0.038866      0.017992     -0.026694
Zr      4.34284      6.59979      7.74095         0.012994     -0.042734      0.019179
Zr      0.02722     10.81023      6.86493        -0.004534      0.011885     -0.092379
