16
# total energy = -106.94518805 eVH      2.38799      1.04803      0.00000         0.000000     -0.019076      0.000000
H      2.38799     10.10167     -0.00000         0.000000      0.019076     -0.000000
C      1.21445      8.32586      0.00000         0.023800      0.008583      0.000000
C      3.56152      8.32586     -0.00000        -0.023800      0.008583     -0.000000
C      3.56152      2.82384     -0.00000        -0.023800     -0.008583     -0.000000
C      1.21445      2.82384      0.00000         0.023800     -0.008583      0.000000
N      2.38799      9.04929      0.00000         0.000000     -0.010923     -0.000000
N      2.38799      2.10041     -0.00000         0.000000      0.010923      0.000000
O      1.13299      4.05954     -0.00000         0.018143     -0.005302     -0.000000
O      3.64298      4.05954      0.00000        -0.018143     -0.005302      0.000000
O      3.64298      7.09016      0.00000        -0.018143      0.005302      0.000000
O      1.13299      7.09016     -0.00000         0.018143      0.005302     -0.000000
O     -0.00000      9.08663      0.00000         0.000000     -0.019092      0.000000
O     -0.00000      2.06307     -0.00000         0.000000      0.019092      0.000000
Ir     -0.00000      0.00000      0.00000         0.000000      0.000000      0.000000
Ir      2.38799      5.57485      0.00000         0.000000      0.000000      0.000000
