152
# total energy = -1005.99475961 eVH     10.35389      5.87395      7.64558         0.258326      0.036846      0.636083
H     10.62451     15.10445      7.64558        -0.107634     -0.142562      0.519132
H     10.62451      5.87395     13.33282         0.485439      0.121184     -0.584127
H     10.35389     15.10445     13.33282         0.074127     -0.184204     -0.550535
H      7.64558     10.35389      5.87395         0.371200      0.066736      0.168807
H      7.64558     10.62451     15.10445         0.693553      0.472229     -0.040997
H     13.33282     10.62451      5.87395        -0.531078      0.419113      0.076323
H     13.33282     10.35389     15.10445        -0.803357     -0.095362      0.008311
H      5.87395      7.64558     10.35389         0.244415      0.724081     -0.362404
H     15.10445      7.64558     10.62451        -0.095019      0.482709      0.284839
H      5.87395     13.33282     10.62451         0.158606     -0.697488     -0.158032
H     15.10445     13.33282     10.35389        -0.008129     -1.032788     -0.327462
H      5.87395     10.35389      7.64558         0.256355      0.238902      0.688722
H     15.10445     10.62451      7.64558        -0.109619      0.406150      0.763531
H      5.87395     10.62451     13.33282         0.137469      0.330225     -0.693700
H     15.10445     10.35389     13.33282        -0.049320     -0.074429     -0.693679
H     10.35389      7.64558      5.87395         0.384020      1.048512     -0.007678
H     10.62451      7.64558     15.10445         0.535710      0.536193     -0.119736
H     10.62451     13.33282      5.87395        -0.397479     -0.840790      0.188297
H     10.35389     13.33282     15.10445        -0.044227     -0.433517     -0.217107
H      7.64558      5.87395     10.35389         0.849437      0.093283     -0.291005
H      7.64558     15.10445     10.62451         0.834333     -0.198515      0.006976
H     13.33282      5.87395     10.62451        -0.801464      0.193776      0.588068
H     13.33282     15.10445     10.35389        -0.444250     -0.109592     -0.133346
H     12.45634     12.45634     19.01126         0.235373      0.270475     -0.239707
H     19.01126     19.01126     19.01126        -0.262489     -0.240654     -0.261212
H     19.01126     12.45634     12.45634        -0.266859      0.268691      0.219018
H     12.45634     19.01126     12.45634         0.232089     -0.255991      0.278004
C     10.35284      5.61067      6.59456        -0.433069     -0.715126      0.179345
C     10.62556     15.36773      6.59456         0.063506      0.366497     -0.300904
C     10.62556      5.61067     14.38384        -0.332399     -0.366240     -0.301893
C     10.35284     15.36773     14.38384        -0.008302      0.337385      0.539189
C      6.59456     10.35284      5.61067        -0.243268     -0.004253     -0.369830
C      6.59456     10.62556     15.36773        -0.259742     -0.218787      0.806472
C     14.38384     10.62556      5.61067        -0.263715     -0.399671     -0.518698
C     14.38384     10.35284     15.36773         0.976227     -0.058291      0.253753
C      5.61067      6.59456     10.35284        -0.539316     -0.004133      0.133338
C     15.36773      6.59456     10.62556         0.527997      0.021608     -0.250644
C      5.61067     14.38384     10.62556        -0.334622      0.974731      0.077775
C     15.36773     14.38384     10.35284         0.313729      1.039650      0.051187
C      5.61067     10.35284      6.59456        -0.182310     -0.281126     -0.612582
C     15.36773     10.62556      6.59456         0.445899     -0.284404      0.116356
C      5.61067     10.62556     14.38384        -0.718109     -0.350208     -0.068411
C     15.36773     10.35284     14.38384         0.385013     -0.063166      1.018262
C     10.35284      6.59456      5.61067        -0.211102     -0.232336     -0.653932
C     10.62556      6.59456     15.36773        -0.267515      0.127502      0.448927
C     10.62556     14.38384      5.61067         0.201975      1.062239     -0.347532
C     10.35284     14.38384     15.36773         0.022220      0.541150      0.439325
C      6.59456      5.61067     10.35284        -0.165662     -0.672965      0.241299
C      6.59456     15.36773     10.62556        -1.016932      0.296140      0.079594
C     14.38384      5.61067     10.62556         0.494690     -0.548943     -0.365460
C     14.38384     15.36773     10.35284         0.214628      0.457686     -0.101868
C     10.40319      3.19606      7.29314         0.009992      0.687791     -0.482306
C     10.35913      4.25547      6.23373         0.085511     -0.723925     -0.019445
C      0.08601      7.29314      7.29314        -0.044093     -0.409196     -0.311128
C      0.13007      6.23373      6.23373        -0.023184      0.084181      0.569836
C      0.08601      3.19606      3.19606        -0.015760      1.256277      0.281843
C      0.13007      4.25547      4.25547         0.049339     -0.776424     -0.153516
C     10.40319      7.29314      3.19606         0.010543     -0.335819      0.344106
C     10.35913      6.23373      4.25547         0.026793      0.008761     -0.872917
C      7.29314     10.40319      3.19606        -0.341888      0.021419      0.565860
C      6.23373     10.35913      4.25547         0.206666      0.059501     -0.106293
C      7.29314      0.08601      7.29314        -0.522286     -0.064595     -0.373788
C      6.23373      0.13007      6.23373         0.680996     -0.050120      0.485881
C      3.19606      0.08601      3.19606         0.692994     -0.036101      0.568141
C      4.25547      0.13007      4.25547        -0.576611     -0.082546     -0.551352
C      3.19606     10.40319      7.29314         0.481163     -0.016949     -0.772848
C      4.25547     10.35913      6.23373        -0.458096      0.039676      0.200613
C      3.19606      7.29314     10.40319         0.288594     -1.266853      0.041454
C      4.25547      6.23373     10.35913        -0.727901      0.104368      0.153762
C      7.29314      7.29314      0.08601        -0.407874     -0.371870     -0.027713
C      6.23373      6.23373      0.13007         0.468501      0.213784     -0.019507
C      3.19606      3.19606      0.08601         0.495599      0.373364     -0.039804
C      4.25547      4.25547      0.13007        -0.153343     -0.649094     -0.034508
C      7.29314      3.19606     10.40319        -0.323323      0.428158      0.075986
C      6.23373      4.25547     10.35913         0.267176     -0.689830      0.140233
O     10.43466      3.58206      8.50569        -0.016352      0.103159      0.504193
O     10.54374     17.39634      8.50569         0.036447     -0.174925      0.484277
O     10.54374      3.58206     12.47271         0.056107     -0.084946     -0.186802
O     10.43466     17.39634     12.47271        -0.038600     -0.182977     -0.557309
O      8.50569     10.43466      3.58206         0.322611      0.000196      0.031461
O      8.50569     10.54374     17.39634         0.630976      0.033863     -0.144833
O     12.47271     10.54374      3.58206        -0.690060      0.083513      0.092938
O     12.47271     10.43466     17.39634        -0.438660      0.026011     -0.111073
O      3.58206      8.50569     10.43466         0.179623      1.037608     -0.044539
O     17.39634      8.50569     10.54374        -0.161306      0.539003      0.076493
O      3.58206     12.47271     10.54374         0.084666     -0.365141      0.049034
O     17.39634     12.47271     10.43466        -0.157200     -0.546568     -0.022749
O      3.58206     10.43466      8.50569         0.076572     -0.063754      0.590860
O     17.39634     10.54374      8.50569        -0.110578      0.066183      0.522677
O      3.58206     10.54374     12.47271         0.050192      0.050363     -0.528459
O     17.39634     10.43466     12.47271        -0.220573     -0.039378     -0.597841
O     10.43466      8.50569      3.58206        -0.039743      0.464716      0.135103
O     10.54374      8.50569     17.39634         0.049070      0.530242     -0.160258
O     10.54374     12.47271      3.58206        -0.000747     -1.010811      0.205750
O     10.43466     12.47271     17.39634         0.041886     -0.730859     -0.175096
O      8.50569      3.58206     10.43466         0.507390      0.146349     -0.054455
O      8.50569     17.39634     10.54374         0.487216     -0.197636      0.014272
O     12.47271      3.58206     10.54374        -0.637319      0.233344      0.009400
O     12.47271     17.39634     10.43466        -0.215638      0.069522     -0.056331
O     11.90042     11.90042     19.56718        -0.239726     -0.289388      0.247469
O     19.56718     19.56718     19.56718         0.310496      0.295211      0.300728
O     19.56718     11.90042     11.90042         0.290581     -0.264926     -0.233154
O     11.90042     19.56718     11.90042        -0.242045      0.290578     -0.333784
O      9.45224      1.03696      9.45224        -0.020055      0.087064     -0.072864
O      1.03696      9.45224      9.45224         0.091051     -0.092139     -0.138030
O      1.03696      1.03696      1.03696         0.089405      0.189816      0.048829
O      9.45224      9.45224      1.03696        -0.110481     -0.101902      0.032403
Zr     10.48920      2.52580     10.48920        -0.130129     -0.289352     -0.036311
Zr     10.48920     18.45260     10.48920        -0.074619      0.215338      0.088730
Zr     10.48920     10.48920      2.52580         0.047525     -0.406240     -0.253131
Zr     10.48920     10.48920     18.45260        -0.274159     -0.090919      0.323404
Zr      2.52580     10.48920     10.48920        -0.377570      0.241157      0.296878
Zr     18.45260     10.48920     10.48920         0.238735     -0.001961     -0.224470
Pd     13.60946      8.98573      9.20982        -0.002852      0.000586     -0.001738
Pd      5.62796      9.86766     10.13587        -0.000169      0.001604     -0.006889
Pd      6.77309     11.85080     11.70998        -0.001328     -0.000525     -0.000262
Pd     12.06289     12.99976      7.36246        -0.004968      0.000089     -0.001169
Pd     11.87746      7.74132      7.45906        -0.002721     -0.003370     -0.001438
Pd      8.31467      6.84123      6.54806         0.000962     -0.009183     -0.009814
Pd     10.59576     11.16928      5.65209        -0.015098     -0.000232      0.002015
Pd     14.39956      8.54857      6.73439        -0.000936     -0.000701     -0.003036
Pd      9.66785     11.73123      8.13826        -0.000945     -0.003516      0.003069
Pd      6.73817      6.79177     12.33429        -0.002862     -0.002053      0.002443
Pd      6.58448      8.19688      7.94805         0.016168      0.033149     -0.032704
Pd      6.52657      8.49370     14.37946        -0.000895     -0.001144      0.002504
Pd     11.48925      6.51789      9.94764        -0.006176      0.001287      0.001011
Pd      9.47862      9.20015      7.16353        -0.006437     -0.000345      0.004357
Pd      8.97939     13.99086      9.34807        -0.001502     -0.002023      0.009708
Pd      9.44621      7.36898     11.70839        -0.003786     -0.000196     -0.006770
Pd     10.62588      8.97026      9.68096        -0.003264     -0.013293     -0.004817
Pd      9.34037     11.55673     10.72572         0.000599      0.006109      0.007253
Pd      8.87620      7.06538      9.12258        -0.002880      0.008587      0.000182
Pd      8.55367      6.57924     14.23785         0.000126      0.000678     -0.001386
Pd      7.62984      9.32510     12.01808        -0.003494     -0.002369      0.002524
Pd     11.95089     10.37832      7.72018        -0.004338     -0.002913     -0.008629
Pd      7.12926     12.01560      9.06698        -0.001084     -0.000219     -0.000655
Pd      8.14045      9.62060      9.44385         0.005950     -0.003500      0.006548
Pd     14.01474      6.49878      8.52254        -0.003105     -0.000218      0.000798
Pd     12.62746      8.40529     11.57221        -0.000937      0.000252     -0.003771
Pd      8.76380     11.57358     13.41014        -0.003790      0.001189      0.000507
Pd     13.87907     11.92109      8.96797        -0.002267     -0.002806     -0.000647
Pd     12.94174     10.70294     13.07301        -0.003038     -0.002040     -0.000497
Pd     14.77426     10.43871     11.11590        -0.004268     -0.006259     -0.000023
Pd     12.06149     10.89801     10.53633        -0.003488      0.003132      0.001073
Pd     11.44436     13.34818      9.92833         0.002062      0.002808      0.003136
Pd     13.59792     12.91891     11.62731         0.001009     -0.003244      0.000446
Pd     11.11658     12.62130     12.54201        -0.001828      0.003006     -0.000342
Pd     10.94646     11.06336     14.81703         0.001470      0.002286      0.003074
Pd     10.50574      9.72776     12.38140         0.000268     -0.003986     -0.004401
Pd      9.08373      9.14187     14.42963         0.000901     -0.001513      0.004005
Pd      8.80885     13.85977     12.04674        -0.004909     -0.000637      0.009879
