152
# total energy = -1005.23815323 eVH     10.35389      5.87395      7.64558         0.164701      0.101396      0.577346
H     10.62451     15.10445      7.64558        -0.128171     -0.142561      0.515548
H     10.62451      5.87395     13.33282         0.563280      0.077898     -0.864948
H     10.35389     15.10445     13.33282         0.019010     -0.154021     -0.393008
H      7.64558     10.35389      5.87395         0.356901      0.040718      0.167230
H      7.64558     10.62451     15.10445         0.934156      0.559807      0.020799
H     13.33282     10.62451      5.87395        -0.443398      0.359967      0.100132
H     13.33282     10.35389     15.10445        -0.833943     -0.070789     -0.010443
H      5.87395      7.64558     10.35389         0.327737      1.275828      0.034419
H     15.10445      7.64558     10.62451        -0.106895      0.501524      0.322613
H      5.87395     13.33282     10.62451         0.179371     -0.602560      0.054782
H     15.10445     13.33282     10.35389        -0.093379     -0.961026     -0.191816
H      5.87395     10.35389      7.64558         0.218062      0.055856      0.446704
H     15.10445     10.62451      7.64558        -0.145220      0.539329      0.784830
H      5.87395     10.62451     13.33282         0.008419      0.464578     -1.100985
H     15.10445     10.35389     13.33282        -0.083010     -0.033037     -0.631715
H     10.35389      7.64558      5.87395         0.312615      1.198833      0.076804
H     10.62451      7.64558     15.10445         0.657503      0.696787     -0.221144
H     10.62451     13.33282      5.87395        -0.393127     -0.830674      0.286563
H     10.35389     13.33282     15.10445        -0.112038     -0.476984     -0.293318
H      7.64558      5.87395     10.35389         0.825001      0.063021     -0.195393
H      7.64558     15.10445     10.62451         0.808161     -0.174910      0.021480
H     13.33282      5.87395     10.62451        -0.716803      0.160736      0.529373
H     13.33282     15.10445     10.35389        -0.374874     -0.120953     -0.086017
H     12.45634     12.45634     19.01126         0.246568      0.273694     -0.232023
H     19.01126     19.01126     19.01126        -0.277471     -0.251678     -0.235569
H     19.01126     12.45634     12.45634        -0.279190      0.262383      0.218270
H     12.45634     19.01126     12.45634         0.236238     -0.260792      0.274952
C     10.35284      5.61067      6.59456        -0.296995     -0.780659     -0.147833
C     10.62556     15.36773      6.59456         0.057557      0.310334     -0.279251
C     10.62556      5.61067     14.38384        -0.148556     -0.502921      0.365010
C     10.35284     15.36773     14.38384         0.021440      0.183533      0.338212
C      6.59456     10.35284      5.61067        -0.398054      0.009466     -0.239444
C      6.59456     10.62556     15.36773        -0.726061      0.105970      0.666050
C     14.38384     10.62556      5.61067        -0.270581     -0.448948     -0.691066
C     14.38384     10.35284     15.36773         1.034941     -0.084818      0.173042
C      5.61067      6.59456     10.35284        -0.741365     -0.290103     -0.344970
C     15.36773      6.59456     10.62556         0.527435      0.047343     -0.394773
C      5.61067     14.38384     10.62556        -0.201074      0.600310     -0.012502
C     15.36773     14.38384     10.35284         0.267694      0.957791      0.021620
C      5.61067     10.35284      6.59456        -0.303937      0.012220     -0.800325
C     15.36773     10.62556      6.59456         0.508555     -0.229826      0.217580
C      5.61067     10.62556     14.38384        -0.730802      0.003954      0.684216
C     15.36773     10.35284     14.38384         0.417382     -0.031219      0.988067
C     10.35284      6.59456      5.61067        -0.139732     -0.792985     -0.557641
C     10.62556      6.59456     15.36773        -0.038293     -0.503611      0.570156
C     10.62556     14.38384      5.61067         0.193191      1.210327     -0.354924
C     10.35284     14.38384     15.36773        -0.005778      0.859071      0.385160
C      6.59456      5.61067     10.35284         0.174630     -1.082509      0.292889
C      6.59456     15.36773     10.62556        -0.966168      0.231312      0.087431
C     14.38384      5.61067     10.62556         0.289274     -0.599214     -0.356784
C     14.38384     15.36773     10.35284         0.140237      0.358331     -0.073841
C     10.40319      3.19606      7.29314         0.003934      0.856332     -0.434289
C     10.35913      4.25547      6.23373         0.066006     -0.531868      0.119047
C      0.08601      7.29314      7.29314        -0.042226     -0.881550     -0.223732
C      0.13007      6.23373      6.23373        -0.053819      0.229720      0.425981
C      0.08601      3.19606      3.19606         0.020886      1.417033      0.255661
C      0.13007      4.25547      4.25547         0.004528     -0.592571     -0.283991
C     10.40319      7.29314      3.19606         0.000396     -0.331930      0.261035
C     10.35913      6.23373      4.25547         0.034743      0.023869     -0.732278
C      7.29314     10.40319      3.19606        -0.270321      0.017589      0.524624
C      6.23373     10.35913      4.25547         0.135610      0.041664     -0.055279
C      7.29314      0.08601      7.29314        -0.881959     -0.078528     -0.298638
C      6.23373      0.13007      6.23373         0.831373     -0.190315      0.409096
C      3.19606      0.08601      3.19606         0.855005     -0.033230      0.554411
C      4.25547      0.13007      4.25547        -0.521556     -0.109537     -0.665856
C      3.19606     10.40319      7.29314         0.544818     -0.013297     -0.793033
C      4.25547     10.35913      6.23373        -0.254240      0.062694      0.218336
C      3.19606      7.29314     10.40319         0.309688     -1.342937      0.019322
C      4.25547      6.23373     10.35913        -1.089960      0.019915      0.119039
C      7.29314      7.29314      0.08601        -0.453906     -0.442150     -0.014388
C      6.23373      6.23373      0.13007         0.595554      0.234381      0.023343
C      3.19606      3.19606      0.08601         0.455418      0.342365     -0.036011
C      4.25547      4.25547      0.13007        -0.139778     -0.579392     -0.048835
C      7.29314      3.19606     10.40319        -0.404024      0.462620      0.056007
C      6.23373      4.25547     10.35913         0.268237     -0.760823      0.142474
O     10.43466      3.58206      8.50569        -0.018313      0.049214      0.437934
O     10.54374     17.39634      8.50569         0.068443     -0.063803      0.316187
O     10.54374      3.58206     12.47271         0.026203     -0.121837     -0.132935
O     10.43466     17.39634     12.47271        -0.026673     -0.166956     -0.519099
O      8.50569     10.43466      3.58206         0.285868     -0.022178      0.012427
O      8.50569     10.54374     17.39634         0.809972     -0.049120     -0.175973
O     12.47271     10.54374      3.58206        -0.769992      0.096945      0.085997
O     12.47271     10.43466     17.39634        -0.470966      0.034438     -0.067662
O      3.58206      8.50569     10.43466         0.148699      1.110543     -0.032956
O     17.39634      8.50569     10.54374        -0.158360      0.601346      0.065991
O      3.58206     12.47271     10.54374         0.100532     -0.437260      0.033596
O     17.39634     12.47271     10.43466        -0.144242     -0.568820     -0.031904
O      3.58206     10.43466      8.50569         0.057477     -0.090294      0.610810
O     17.39634     10.54374      8.50569        -0.022398      0.091874      0.403504
O      3.58206     10.54374     12.47271         0.032596      0.036307     -0.497674
O     17.39634     10.43466     12.47271        -0.225898     -0.045476     -0.642678
O     10.43466      8.50569      3.58206        -0.040927      0.451140      0.141857
O     10.54374      8.50569     17.39634        -0.071011      0.729948     -0.226883
O     10.54374     12.47271      3.58206         0.030560     -0.994171      0.123930
O     10.43466     12.47271     17.39634         0.062020     -0.802745     -0.221280
O      8.50569      3.58206     10.43466         0.587854      0.149920     -0.054575
O      8.50569     17.39634     10.54374         0.542788     -0.178389     -0.002238
O     12.47271      3.58206     10.54374        -0.609155      0.191887      0.002336
O     12.47271     17.39634     10.43466        -0.253354      0.081315     -0.044449
O     11.90042     11.90042     19.56718        -0.266104     -0.313848      0.224473
O     19.56718     19.56718     19.56718         0.326787      0.293705      0.238205
O     19.56718     11.90042     11.90042         0.318088     -0.260941     -0.234631
O     11.90042     19.56718     11.90042        -0.241893      0.298927     -0.334952
O      9.45224      1.03696      9.45224         0.002066      0.063090     -0.138765
O      1.03696      9.45224      9.45224         0.079262     -0.076819     -0.179559
O      1.03696      1.03696      1.03696         0.104711      0.167099      0.029489
O      9.45224      9.45224      1.03696        -0.092094     -0.111631      0.009343
Zr     10.48920      2.52580     10.48920        -0.085717     -0.206723     -0.020945
Zr     10.48920     18.45260     10.48920        -0.101266      0.183259      0.202308
Zr     10.48920     10.48920      2.52580        -0.075192     -0.444381     -0.189332
Zr     10.48920     10.48920     18.45260        -0.132493      0.055199      0.453712
Zr      2.52580     10.48920     10.48920        -0.329054      0.306076      0.327313
Zr     18.45260     10.48920     10.48920         0.155358      0.016020     -0.088386
Pd     13.61340      8.95149      9.11748         0.010936      0.019542     -0.006118
Pd      5.68178      9.70903      9.93798         0.050631     -0.004684      0.037852
Pd      6.87343     11.29492     11.71709        -0.007015      0.055499     -0.018103
Pd     12.15926     13.14354      7.37468         0.031776     -0.028105     -0.043932
Pd     12.09780      7.89492      7.15024        -0.002478     -0.027925      0.007073
Pd      8.28332      7.06988      6.54657         0.018033     -0.018036      0.009562
Pd     10.83388     11.31648      5.59821         0.040027     -0.031639     -0.021452
Pd     14.64579      8.54202      6.69449         0.004739     -0.027486     -0.019902
Pd      9.62494     11.79360      8.03417         0.030629      0.027841     -0.018015
Pd      6.68989      6.80658     12.29653        -0.011174     -0.033269      0.020440
Pd      6.39075      7.52212      8.28787         0.027095      0.040524      0.004468
Pd      7.03367      8.91418     13.84151        -0.030501     -0.032789      0.030286
Pd     11.69257      6.55060      9.43990        -0.063483     -0.001824      0.010143
Pd      9.75175      9.29164      6.89989         0.018258     -0.007057      0.008773
Pd      9.04597     13.96498      9.43054        -0.001110      0.008587     -0.010399
Pd     10.08100      7.04697     11.47592        -0.070385      0.008461      0.020913
Pd     10.54088      8.94965      9.52284         0.006269      0.068069      0.034596
Pd      9.37833     11.24707     10.62797         0.009990     -0.004381     -0.017305
Pd      8.91890      6.95105      9.10113        -0.008498      0.016090      0.024308
Pd      8.82008      6.98208     13.80148        -0.013768     -0.020936      0.023852
Pd      8.09966      8.87243     11.37202        -0.056605      0.021429      0.000037
Pd     11.95897     10.54500      7.83111        -0.014293     -0.010357     -0.012649
Pd      7.15739     12.04800      9.17629        -0.002662     -0.011673     -0.005767
Pd      8.01882      9.56320      8.79277         0.001251      0.028677      0.012117
Pd     14.23619      6.51782      8.45264        -0.049725     -0.015628     -0.019325
Pd     12.55981      8.25971     11.46865        -0.013543      0.006726     -0.007529
Pd      8.83928     11.33818     13.43559         0.001285     -0.005461      0.009023
Pd     13.90907     11.94117      9.04349        -0.035817     -0.030824      0.007088
Pd     12.85180     10.57595     13.07764         0.015133      0.012903      0.022409
Pd     14.70182     10.28880     11.13701        -0.000044      0.014532     -0.002343
Pd     12.04159     10.73777     10.58131        -0.005941     -0.011655      0.021119
Pd     11.46605     13.17489      9.90074        -0.013677     -0.020432     -0.032701
Pd     13.57973     12.79813     11.69173        -0.034282      0.058073     -0.031160
Pd     11.02715     12.56390     12.44351         0.001238     -0.021033      0.007500
Pd     11.11303     11.38307     14.86704        -0.010953     -0.020152      0.029796
Pd     10.47958      9.46861     12.58768         0.000261      0.022151     -0.005546
Pd      9.45867      9.32910     15.06255        -0.020431      0.003182     -0.042760
Pd      8.57834     13.49627     11.98256         0.045100      0.004626      0.037522
