40
# total energy = -344.37220910 eVC      1.19543      4.91500      7.50000         0.061241     -0.011358      0.000000
C     13.93147      3.44826      7.50000        -0.061241      0.011358     -0.000000
C     13.93147      4.91500      7.50000        -0.061241     -0.011358     -0.000000
C      1.19543      3.44826      7.50000         0.061241      0.011358      0.000000
C      8.75888      0.73337      7.50000         0.061241     -0.011358      0.000000
C      6.36802      7.62989      7.50000        -0.061241      0.011358     -0.000000
C      6.36802      0.73337      7.50000        -0.061241     -0.011358     -0.000000
C      8.75888      7.62989      7.50000         0.061241      0.011358      0.000000
C      2.49079      2.79487      7.50000         0.053992     -0.675590      0.000000
C     12.63611      5.56839      7.50000        -0.053992      0.675590     -0.000000
C     12.63611      2.79487      7.50000        -0.053992     -0.675590     -0.000000
C      2.49079      5.56839      7.50000         0.053992      0.675590      0.000000
C     10.05424      6.97650      7.50000         0.053992     -0.675590      0.000000
C      5.07266      1.38676      7.50000        -0.053992      0.675590     -0.000000
C      5.07266      6.97650      7.50000        -0.053992     -0.675590     -0.000000
C     10.05424      1.38676      7.50000         0.053992      0.675590      0.000000
C      3.72915      4.88816      7.50000         0.003504     -0.074954      0.000000
C     11.39775      3.47510      7.50000        -0.003504      0.074954      0.000000
C     11.39775      4.88816      7.50000        -0.003504     -0.074954      0.000000
C      3.72915      3.47510      7.50000         0.003504      0.074954     -0.000000
C     11.29260      0.70653      7.50000         0.003504     -0.074954     -0.000000
C      3.83430      7.65673      7.50000        -0.003504      0.074954      0.000000
C      3.83430      0.70653      7.50000        -0.003504     -0.074954      0.000000
C     11.29260      7.65673      7.50000         0.003504      0.074954     -0.000000
N      2.64067      6.94293      7.50000        -1.263038      0.682591      0.000000
N     12.48623      1.42033      7.50000         1.263038     -0.682591     -0.000000
N     12.48623      6.94293      7.50000         1.263038      0.682591      0.000000
N      2.64067      1.42033      7.50000        -1.263038     -0.682591      0.000000
N     10.20412      2.76130      7.50000        -1.263038      0.682591      0.000000
N      4.92278      5.60196      7.50000         1.263038     -0.682591     -0.000000
N      4.92278      2.76130      7.50000         1.263038      0.682591      0.000000
N     10.20412      5.60196      7.50000        -1.263038     -0.682591      0.000000
N      7.56345      6.89782      7.50000        -0.000000     -0.104068      0.000000
N      7.56345      1.46544      7.50000        -0.000000      0.104068     -0.000000
N      0.00000      2.71619      7.50000        -0.000000     -0.104068     -0.000000
N      0.00000      5.64707      7.50000        -0.000000      0.104068      0.000000
Zr     14.09271     -0.00000      7.50000        -0.174044      0.000000     -0.000000
Zr      1.03419      0.00000      7.50000         0.174044      0.000000      0.000000
Zr      6.52926      4.18163      7.50000        -0.174044      0.000000      0.000000
Zr      8.59764      4.18163      7.50000         0.174044      0.000000      0.000000
