40
# total energy = -344.28520227 eVC      1.19483      4.91359      7.50000         0.087553      0.094666     -0.000000
C     13.93207      3.44967      7.50000        -0.087553     -0.094666     -0.000000
C     13.93207      4.91359      7.50000        -0.087553      0.094666     -0.000000
C      1.19483      3.44967      7.50000         0.087553     -0.094666      0.000000
C      8.75828      0.73196      7.50000         0.087553      0.094666      0.000000
C      6.36862      7.63130      7.50000        -0.087553     -0.094666     -0.000000
C      6.36862      0.73196      7.50000        -0.087553      0.094666     -0.000000
C      8.75828      7.63130      7.50000         0.087553     -0.094666      0.000000
C      2.48998      2.79205      7.50000         0.059884     -0.283307     -0.000000
C     12.63692      5.57121      7.50000        -0.059884      0.283307      0.000000
C     12.63692      2.79205      7.50000        -0.059884     -0.283307     -0.000000
C      2.48998      5.57121      7.50000         0.059884      0.283307      0.000000
C     10.05343      6.97368      7.50000         0.059884     -0.283307     -0.000000
C      5.07347      1.38958      7.50000        -0.059884      0.283307     -0.000000
C      5.07347      6.97368      7.50000        -0.059884     -0.283307      0.000000
C     10.05343      1.38958      7.50000         0.059884      0.283307      0.000000
C      3.72732      4.88816      7.50000        -0.025349     -0.051894     -0.000000
C     11.39958      3.47510      7.50000         0.025349      0.051894     -0.000000
C     11.39958      4.88816      7.50000         0.025349     -0.051894      0.000000
C      3.72732      3.47510      7.50000        -0.025349      0.051894      0.000000
C     11.29077      0.70653      7.50000        -0.025349     -0.051894      0.000000
C      3.83613      7.65673      7.50000         0.025349      0.051894     -0.000000
C      3.83613      0.70653      7.50000         0.025349     -0.051894     -0.000000
C     11.29077      7.65673      7.50000        -0.025349      0.051894      0.000000
N      2.64198      6.93808      7.50000        -1.131918      0.928305      0.000000
N     12.48492      1.42518      7.50000         1.131918     -0.928305      0.000000
N     12.48492      6.93808      7.50000         1.131918      0.928305      0.000000
N      2.64198      1.42518      7.50000        -1.131918     -0.928305     -0.000000
N     10.20543      2.75645      7.50000        -1.131918      0.928305      0.000000
N      4.92147      5.60681      7.50000         1.131918     -0.928305     -0.000000
N      4.92147      2.75645      7.50000         1.131918      0.928305     -0.000000
N     10.20543      5.60681      7.50000        -1.131918     -0.928305     -0.000000
N      7.56345      6.89803      7.50000        -0.000000     -0.064845     -0.000000
N      7.56345      1.46523      7.50000        -0.000000      0.064845     -0.000000
N      0.00000      2.71640      7.50000        -0.000000     -0.064845     -0.000000
N      0.00000      5.64686      7.50000        -0.000000      0.064845     -0.000000
Zr     14.06232     -0.00000      7.50000         0.898559      0.000000     -0.000000
Zr      1.06458      0.00000      7.50000        -0.898559      0.000000     -0.000000
Zr      6.49887      4.18163      7.50000         0.898559     -0.000000     -0.000000
Zr      8.62803      4.18163      7.50000        -0.898559      0.000000     -0.000000
