152
# total energy = -1092.30582345 eVH     10.35389      5.87395      7.64558         0.814448     -0.688340      1.559447
H     10.62451     15.10445      7.64558        -0.775195      0.857624      1.872014
H     10.62451      5.87395     13.33282         0.466863     -0.215780     -1.774104
H     10.35389     15.10445     13.33282        -0.649198      0.403785     -1.840712
H      7.64558     10.35389      5.87395         0.369566     -0.064792      0.000395
H      7.64558     10.62451     15.10445         0.471108     -0.114414      0.059670
H     13.33282     10.62451      5.87395        -0.488428      0.007232      0.095470
H     13.33282     10.35389     15.10445        -0.521332      0.161868      0.028421
H      5.87395      7.64558     10.35389         0.039600      1.342905     -0.124962
H     15.10445      7.64558     10.62451        -0.019371      0.650849     -0.004683
H      5.87395     13.33282     10.62451        -0.066087     -0.557864      0.003981
H     15.10445     13.33282     10.35389         0.216851     -1.560278      0.180337
H      5.87395     10.35389      7.64558        -0.321692     -0.191033     -0.048001
H     15.10445     10.62451      7.64558         0.282415      0.193305      0.092472
H      5.87395     10.62451     13.33282        -0.181449      0.111012      0.002620
H     15.10445     10.35389     13.33282         0.051862     -0.199645     -0.063813
H     10.35389      7.64558      5.87395        -0.226605      0.555091     -0.098783
H     10.62451      7.64558     15.10445         0.128377      0.543844      0.298276
H     10.62451     13.33282      5.87395        -0.145233     -0.989267     -0.165054
H     10.35389     13.33282     15.10445        -0.222424     -0.743314      0.270302
H      7.64558      5.87395     10.35389         0.432685     -0.048370     -0.128910
H      7.64558     15.10445     10.62451         0.578435     -0.010275     -0.099875
H     13.33282      5.87395     10.62451        -0.476133      0.010994      0.063169
H     13.33282     15.10445     10.35389        -0.492059      0.181795     -0.040686
H     12.45634     12.45634     19.01126         0.257647      0.250426     -0.243701
H     19.01126     19.01126     19.01126        -0.256687     -0.247210     -0.247029
H     19.01126     12.45634     12.45634        -0.254304      0.267065      0.234414
H     12.45634     19.01126     12.45634         0.258912     -0.266720      0.230564
C     10.35284      5.61067      6.59456        -0.554925     -0.066076     -1.841783
C     10.62556     15.36773      6.59456         0.449834     -0.010287     -1.997561
C     10.62556      5.61067     14.38384        -0.417564     -0.061690      1.815082
C     10.35284     15.36773     14.38384         0.366096      0.212191      1.976426
C      6.59456     10.35284      5.61067        -0.612189     -0.011442     -0.236720
C      6.59456     10.62556     15.36773        -0.884404     -0.055386      0.186747
C     14.38384     10.62556      5.61067         0.731386      0.009722     -0.119296
C     14.38384     10.35284     15.36773         0.788461     -0.004604      0.249104
C      5.61067      6.59456     10.35284        -0.086000     -0.801510      0.129765
C     15.36773      6.59456     10.62556         0.179176     -1.025239     -0.008001
C      5.61067     14.38384     10.62556        -0.249534      0.963108      0.003277
C     15.36773     14.38384     10.35284         0.142163      1.200494      0.003500
C      5.61067     10.35284      6.59456        -0.733709      0.040921     -2.009239
C     15.36773     10.62556      6.59456         0.665246      0.006442     -1.979531
C      5.61067     10.62556     14.38384        -0.807475     -0.006170      1.973538
C     15.36773     10.35284     14.38384         0.602196     -0.089754      1.551444
C     10.35284      6.59456      5.61067         0.038818     -1.519671     -0.797539
C     10.62556      6.59456     15.36773        -0.004529     -1.642942      1.017765
C     10.62556     14.38384      5.61067         0.032756      1.751540     -0.891679
C     10.35284     14.38384     15.36773        -0.059258      1.765039      1.009068
C      6.59456      5.61067     10.35284        -0.352810     -0.893057     -0.168474
C      6.59456     15.36773     10.62556        -1.500136      0.709733      0.058980
C     14.38384      5.61067     10.62556         1.418776     -0.683406     -0.009979
C     14.38384     15.36773     10.35284         0.340342      1.041431     -0.022431
C     10.40319      3.19606      7.29314        -0.001355      0.564582     -0.385948
C     10.35913      4.25547      6.23373         0.055738     -0.843575      0.594567
C      0.08601      7.29314      7.29314         0.004484     -0.485815     -0.385493
C      0.13007      6.23373      6.23373        -0.042103      0.866060      0.601746
C      0.08601      3.19606      3.19606        -0.032781      0.558197      0.352604
C      0.13007      4.25547      4.25547        -0.024460     -0.953604     -0.476866
C     10.40319      7.29314      3.19606         0.054021     -0.492849      0.380305
C     10.35913      6.23373      4.25547         0.063235      0.736282     -0.542953
C      7.29314     10.40319      3.19606        -0.335977      0.008090      0.641198
C      6.23373     10.35913      4.25547         0.235052     -0.042519     -0.339261
C      7.29314      0.08601      7.29314        -0.313056      0.011486     -0.432845
C      6.23373      0.13007      6.23373         0.116483     -0.001515      0.465397
C      3.19606      0.08601      3.19606         0.305524      0.006314      0.659128
C      4.25547      0.13007      4.25547        -0.238716      0.067079     -0.365863
C      3.19606     10.40319      7.29314         0.320389      0.007149     -0.581212
C      4.25547     10.35913      6.23373        -0.255161      0.028501      0.596345
C      3.19606      7.29314     10.40319         0.250088     -0.424925      0.004212
C      4.25547      6.23373     10.35913        -0.705032      0.338917      0.024270
C      7.29314      7.29314      0.08601        -0.462666     -0.229829      0.000615
C      6.23373      6.23373      0.13007         0.080698      0.303069     -0.030913
C      3.19606      3.19606      0.08601         0.418294      0.250943     -0.017306
C      4.25547      4.25547      0.13007        -0.061662     -0.217696     -0.018789
C      7.29314      3.19606     10.40319        -0.311134      0.557842     -0.017076
C      6.23373      4.25547     10.35913         0.764232     -0.484762      0.042421
O     10.43466      3.58206      8.50569        -0.011648      0.185822      0.380087
O     10.54374     17.39634      8.50569        -0.004585     -0.210668      0.383270
O     10.54374      3.58206     12.47271         0.072418      0.181249     -0.342316
O     10.43466     17.39634     12.47271        -0.108313     -0.209650     -0.351427
O      8.50569     10.43466      3.58206         0.430074     -0.022137      0.097805
O      8.50569     10.54374     17.39634         0.460522      0.053641     -0.136601
O     12.47271     10.54374      3.58206        -0.388420      0.005973      0.078423
O     12.47271     10.43466     17.39634        -0.441851     -0.053684     -0.121876
O      3.58206      8.50569     10.43466         0.146914      0.460365     -0.044054
O     17.39634      8.50569     10.54374        -0.099968      0.440604      0.034304
O      3.58206     12.47271     10.54374         0.080592     -0.420387      0.050028
O     17.39634     12.47271     10.43466        -0.220341     -0.581981      0.001277
O      3.58206     10.43466      8.50569         0.219710     -0.010875      0.527506
O     17.39634     10.54374      8.50569        -0.160319     -0.001712      0.476915
O      3.58206     10.54374     12.47271         0.311912      0.031958     -0.563619
O     17.39634     10.43466     12.47271        -0.218722     -0.007496     -0.594526
O     10.43466      8.50569      3.58206         0.030398      0.540492      0.269083
O     10.54374      8.50569     17.39634         0.069662      0.547825     -0.262701
O     10.54374     12.47271      3.58206         0.002186     -0.621571      0.281263
O     10.43466     12.47271     17.39634        -0.044110     -0.592140     -0.278885
O      8.50569      3.58206     10.43466         0.537569      0.141049     -0.034159
O      8.50569     17.39634     10.54374         0.547853     -0.169212      0.042304
O     12.47271      3.58206     10.54374        -0.539943      0.176583      0.002334
O     12.47271     17.39634     10.43466        -0.515339     -0.172382     -0.021634
O     11.90042     11.90042     19.56718        -0.293918     -0.298887      0.263048
O     19.56718     19.56718     19.56718         0.302201      0.287458      0.273161
O     19.56718     11.90042     11.90042         0.306900     -0.322929     -0.254835
O     11.90042     19.56718     11.90042        -0.297704      0.309686     -0.243141
O      9.45224      1.03696      9.45224        -0.046669      0.037140     -0.082683
O      1.03696      9.45224      9.45224         0.052198     -0.050789     -0.074289
O      1.03696      1.03696      1.03696         0.065877      0.036513      0.110510
O      9.45224      9.45224      1.03696        -0.046776     -0.063131      0.106077
Zr     10.48920      2.52580     10.48920        -0.128335     -0.074309      0.009000
Zr     10.48920     18.45260     10.48920         0.109808      0.121257     -0.055965
Zr     10.48920     10.48920      2.52580        -0.031918      0.041732     -0.257927
Zr     10.48920     10.48920     18.45260        -0.008058     -0.016318      0.193390
Zr      2.52580     10.48920     10.48920        -0.108986     -0.029305     -0.094884
Zr     18.45260     10.48920     10.48920         0.163942      0.064422     -0.088003
Pd     13.26122      8.32931      7.97575        -0.010676     -0.028010     -0.201017
Pd      9.06921     14.39811     11.95377         0.019049     -0.050552     -0.118481
Pd     12.23052     11.18919     10.56982        -0.115436      0.049928     -0.067949
Pd     14.63499     10.73964     11.70399         0.062134     -0.064473      0.034836
Pd     11.14739      9.22100      6.44013        -0.009285     -0.028111     -0.152685
Pd      6.91035      7.90685      8.49595        -0.000920      0.016982      0.107553
Ir     10.01842     11.84720     11.87973         0.123986     -0.152498     -0.109238
Ir     13.13567      8.64624     10.60963        -0.067745     -0.059152      0.120589
Ir     12.18871     11.13353      7.91030         0.200597      0.076570      0.012251
Ir      9.14719     14.17515      9.23110         0.181400     -0.028583      0.009807
Ir     10.84844      9.30649     11.83237         0.244071     -0.069884      0.189753
Ir      8.73617      9.77065      7.90495        -0.163242     -0.043581     -0.048155
Ir     13.61962     12.92565      9.10100        -0.072568     -0.125476      0.036810
Ir     11.50951     13.57130      7.90310         0.067587      0.099908     -0.000672
Ir     14.31270     10.43501      9.22107         0.100160     -0.192094     -0.101697
Ir      9.48562      7.30918     10.58448         0.024947      0.020441      0.053851
Ir      7.86435     12.31984      7.88407         0.065893      0.024962      0.074986
Ir      9.45733      7.41638      8.02394         0.040107      0.024720      0.157298
Ir     11.52932     13.65842     13.18663        -0.035243      0.111825     -0.105934
Ir     11.78939      6.94723     12.04148        -0.112261      0.032526     -0.023668
Ir      9.98375     11.69293      9.21701         0.104978      0.233705      0.165368
Ir     13.22151      8.68091     13.21587        -0.105551     -0.031338     -0.002962
Ir     10.95347      9.19488      9.19312        -0.031796     -0.124679     -0.026798
Ir     11.31333     13.72976     10.49663         0.120752     -0.031326     -0.119002
Ir     13.50020     13.16316     11.90059         0.082863     -0.115702     -0.141424
Ir     12.26050     11.22067     13.21379         0.115575     -0.141626      0.014224
Ir     10.00334     11.58140      6.60666        -0.024910      0.002443     -0.059162
Ir     11.68152      6.75584      9.50322         0.107257     -0.095329     -0.213834
Ir      7.28571      7.92905     11.91076         0.211076      0.023441      0.048127
Ir      7.84051     12.38134     10.53937         0.072096      0.223275     -0.158674
Ir     11.00623      9.32930     14.37760         0.010617     -0.081136     -0.056164
Ir      7.79271     12.23592     13.10184        -0.030137      0.070818      0.133074
Ir      6.56473     10.47994      9.26473        -0.031128      0.134619      0.061511
Ir      8.67723      9.77800     13.19982        -0.047363     -0.015187      0.034267
Ir      6.45563     10.38233     11.65930        -0.076651     -0.006220      0.008254
Ir      9.25166      7.25470     13.19551         0.039756      0.001170     -0.057107
Ir      9.95759     11.60665     14.44239         0.014276      0.135280      0.037613
Ir      8.66800      9.77836     10.54409         0.081500     -0.129164      0.016201
