26
# total energy = -177.59104097 eVH      0.05544      6.30223      7.50000         0.005388      0.009787     -0.000000
H      2.99952      1.78648      7.50000        -0.008756     -0.012238     -0.000000
H      5.48002      5.40086      7.50000        -0.011694      0.002227     -0.000000
H      8.41627     -2.58858      7.50000        -0.005388     -0.009787     -0.000000
H      5.47220      1.92716      7.50000         0.008756      0.012238     -0.000000
H      2.99169     -1.68722      7.50000         0.011694     -0.002227     -0.000000
C      7.53501      2.59025      7.50000         0.011711      0.003370      0.000000
C      1.42931     -0.24971      7.50000        -0.012172     -0.009276      0.000000
C      7.97918     -4.69650      7.50000        -0.005221     -0.005867      0.000000
C      0.93670      1.12339      7.50000        -0.011711     -0.003370     -0.000000
C      7.04240      3.96335      7.50000         0.012172      0.009276      0.000000
C      0.49253      8.41014      7.50000         0.005221      0.005867     -0.000000
C      7.61204     -3.32046      7.50000        -0.001595      0.017956      0.000000
C      6.51014      1.59480      7.50000        -0.000470     -0.003831      0.000000
C      2.79037     -0.61139      7.50000        -0.002555      0.002574      0.000000
C      0.85967      7.03411      7.50000         0.001595     -0.017956     -0.000000
C      1.96157      2.11885      7.50000         0.000470      0.003831      0.000000
C      5.68134      4.32503      7.50000         0.002555     -0.002574      0.000000
O      6.42076     -2.80076      7.50000         0.012946      0.008822     -0.000000
O      6.70743      0.31338      7.50000         0.002788      0.003613      0.000000
O      3.88985      0.09911      7.50000         0.011753      0.005665     -0.000000
O      2.05095      6.51440      7.50000        -0.012946     -0.008822      0.000000
O      1.76428      3.40026      7.50000        -0.002788     -0.003613      0.000000
O      4.58186      3.61453      7.50000        -0.011753     -0.005665     -0.000000
Ir      5.43286     -1.16677      7.50000         0.013454      0.007351     -0.000000
Ir      3.03885      4.88041      7.50000        -0.013454     -0.007351     -0.000000
