152
# total energy = -1022.54944320 eVH     10.35389      5.87395      7.64558         0.436411     -0.023236      1.018776
H     10.62451     15.10445      7.64558         0.024078     -0.049083      0.648228
H     10.62451      5.87395     13.33282         0.133318      0.110607     -0.624926
H     10.35389     15.10445     13.33282        -0.265271     -0.068064     -0.553853
H      7.64558     10.35389      5.87395         0.370798     -0.059039      0.193377
H      7.64558     10.62451     15.10445         0.622461     -0.145945     -0.119447
H     13.33282     10.62451      5.87395        -1.010228     -0.472705      0.025215
H     13.33282     10.35389     15.10445        -0.480228     -0.070053     -0.049677
H      5.87395      7.64558     10.35389         0.053772      1.236266     -0.084808
H     15.10445      7.64558     10.62451        -0.169136      0.396282     -0.076394
H      5.87395     13.33282     10.62451         0.144776     -0.387010     -0.067065
H     15.10445     13.33282     10.35389        -0.081497     -0.994126     -0.309606
H      5.87395     10.35389      7.64558         0.120024     -0.009270      0.416672
H     15.10445     10.62451      7.64558         0.117519     -0.123902      0.773332
H      5.87395     10.62451     13.33282         0.267181     -0.050484     -0.417678
H     15.10445     10.35389     13.33282        -0.169968      0.049356     -0.633655
H     10.35389      7.64558      5.87395         0.182188      0.901351      0.062732
H     10.62451      7.64558     15.10445         0.008048      0.693032     -0.114692
H     10.62451     13.33282      5.87395         0.292530     -0.532396      0.189637
H     10.35389     13.33282     15.10445        -0.194644     -0.917472     -0.118233
H      7.64558      5.87395     10.35389         0.495901      0.049465     -0.160896
H      7.64558     15.10445     10.62451         0.917930     -0.191185      0.259260
H     13.33282      5.87395     10.62451        -0.426030      0.192692     -0.069261
H     13.33282     15.10445     10.35389        -0.996984     -0.054680      0.262046
H     12.45634     12.45634     19.01126         0.271845      0.258630     -0.219924
H     19.01126     19.01126     19.01126        -0.249422     -0.235372     -0.261615
H     19.01126     12.45634     12.45634        -0.244171      0.272846      0.235168
H     12.45634     19.01126     12.45634         0.206714     -0.284716      0.256864
C     10.35284      5.61067      6.59456        -0.066321     -0.472871     -0.692906
C     10.62556     15.36773      6.59456         0.020823      0.333167     -0.929161
C     10.62556      5.61067     14.38384        -0.008480     -0.281509      0.741298
C     10.35284     15.36773     14.38384         0.220376      0.714149      0.072448
C      6.59456     10.35284      5.61067        -0.551958     -0.037876     -0.242416
C      6.59456     10.62556     15.36773        -0.847712      0.135045      0.400148
C     14.38384     10.62556      5.61067         1.011620      0.290316     -0.315512
C     14.38384     10.35284     15.36773         0.755582     -0.117360      0.424529
C      5.61067      6.59456     10.35284        -0.390385     -0.918997      0.208137
C     15.36773      6.59456     10.62556         0.203836     -0.481896      0.040097
C      5.61067     14.38384     10.62556        -0.251563      0.381727     -0.010535
C     15.36773     14.38384     10.35284         0.324323      0.316103      0.257136
C      5.61067     10.35284      6.59456        -0.329037      0.010607     -0.827138
C     15.36773     10.62556      6.59456         0.533810     -0.161661     -1.201094
C      5.61067     10.62556     14.38384        -0.506009      0.008292      1.064691
C     15.36773     10.35284     14.38384         0.544324     -0.194272      1.317628
C     10.35284      6.59456      5.61067        -0.012277     -1.083822     -0.708873
C     10.62556      6.59456     15.36773         0.054131     -0.867823      0.371718
C     10.62556     14.38384      5.61067        -0.032155      1.377228     -0.722415
C     10.35284     14.38384     15.36773         0.058351      0.637063      0.595722
C      6.59456      5.61067     10.35284        -0.123405     -0.902693      0.133365
C      6.59456     15.36773     10.62556        -1.731761      0.488710      0.050420
C     14.38384      5.61067     10.62556         0.557803     -0.225424      0.003109
C     14.38384     15.36773     10.35284         0.437821      0.503831     -0.215466
C     10.40319      3.19606      7.29314         0.017939      0.968854     -0.231127
C     10.35913      4.25547      6.23373        -0.038218     -0.294306      0.729570
C      0.08601      7.29314      7.29314        -0.010912     -0.223184     -0.462726
C      0.13007      6.23373      6.23373        -0.013414      0.143307      0.175559
C      0.08601      3.19606      3.19606        -0.022911      0.707875      0.152570
C      0.13007      4.25547      4.25547        -0.103175     -0.191830     -0.161448
C     10.40319      7.29314      3.19606        -0.002889     -0.653672      0.488009
C     10.35913      6.23373      4.25547         0.002446      0.561317     -0.315356
C      7.29314     10.40319      3.19606        -0.401183      0.018261      0.888036
C      6.23373     10.35913      4.25547         0.235936     -0.005188     -0.175985
C      7.29314      0.08601      7.29314        -0.305818     -0.052964     -0.241653
C      6.23373      0.13007      6.23373         0.285577     -0.086238      0.250565
C      3.19606      0.08601      3.19606         0.339740     -0.057659      1.342377
C      4.25547      0.13007      4.25547        -0.182584     -0.013993     -0.438704
C      3.19606     10.40319      7.29314         0.744556      0.017636     -0.260166
C      4.25547     10.35913      6.23373        -0.120730      0.038977      0.122223
C      3.19606      7.29314     10.40319         0.534394     -1.241399      0.040200
C      4.25547      6.23373     10.35913        -0.752638      0.724308      0.027881
C      7.29314      7.29314      0.08601        -0.647536     -0.186923     -0.024116
C      6.23373      6.23373      0.13007         0.172782      0.260513     -0.013878
C      3.19606      3.19606      0.08601         0.255303      0.263691     -0.019453
C      4.25547      4.25547      0.13007        -0.054575     -0.033993      0.014738
C      7.29314      3.19606     10.40319        -0.347904      0.708520      0.029021
C      6.23373      4.25547     10.35913         0.730275     -0.210549      0.029424
O     10.43466      3.58206      8.50569        -0.054949      0.022821      0.285241
O     10.54374     17.39634      8.50569        -0.020224     -0.193958      0.615016
O     10.54374      3.58206     12.47271         0.066436      0.046731     -0.292746
O     10.43466     17.39634     12.47271        -0.024058     -0.126471     -0.557611
O      8.50569     10.43466      3.58206         0.395412     -0.009088     -0.010275
O      8.50569     10.54374     17.39634         0.465535      0.058860     -0.144450
O     12.47271     10.54374      3.58206        -0.220756      0.066986     -0.114069
O     12.47271     10.43466     17.39634        -0.849406      0.026150     -0.209450
O      3.58206      8.50569     10.43466         0.033855      0.889181      0.042097
O     17.39634      8.50569     10.54374        -0.030995      0.352146      0.080447
O      3.58206     12.47271     10.54374         0.064289     -0.431173      0.059134
O     17.39634     12.47271     10.43466        -0.157960     -0.719455      0.012047
O      3.58206     10.43466      8.50569        -0.055387     -0.061126      0.227500
O     17.39634     10.54374      8.50569        -0.134241      0.042822      0.441748
O      3.58206     10.54374     12.47271        -0.054870     -0.061183     -0.868022
O     17.39634     10.43466     12.47271        -0.193034      0.042729     -0.763265
O     10.43466      8.50569      3.58206         0.027400      0.674895      0.199306
O     10.54374      8.50569     17.39634         0.054725      0.398984     -0.070373
O     10.54374     12.47271      3.58206        -0.044430     -0.741661      0.249756
O     10.43466     12.47271     17.39634         0.061143     -0.849472     -0.280030
O      8.50569      3.58206     10.43466         0.495602      0.092594     -0.041442
O      8.50569     17.39634     10.54374         0.657153     -0.236023     -0.057597
O     12.47271      3.58206     10.54374        -0.508535      0.157961      0.041450
O     12.47271     17.39634     10.43466        -0.477758     -0.032016     -0.043847
O     11.90042     11.90042     19.56718        -0.307836     -0.310583      0.259570
O     19.56718     19.56718     19.56718         0.292132      0.274738      0.321315
O     19.56718     11.90042     11.90042         0.281881     -0.329092     -0.233399
O     11.90042     19.56718     11.90042        -0.220679      0.294552     -0.242352
O      9.45224      1.03696      9.45224        -0.070793      0.061002     -0.065227
O      1.03696      9.45224      9.45224         0.070298     -0.142013     -0.049798
O      1.03696      1.03696      1.03696         0.046416      0.030251      0.189496
O      9.45224      9.45224      1.03696        -0.034978     -0.085769      0.133991
Zr     10.48920      2.52580     10.48920        -0.000754     -0.073009     -0.028354
Zr     10.48920     18.45260     10.48920         0.032744      0.289981     -0.066309
Zr     10.48920     10.48920      2.52580        -0.071871     -0.030878     -0.368347
Zr     10.48920     10.48920     18.45260        -0.151860     -0.198158      0.300316
Zr      2.52580     10.48920     10.48920        -0.323901      0.342400     -0.482760
Zr     18.45260     10.48920     10.48920         0.213855      0.039606     -0.298076
Pd      9.04522     10.27939     13.45211         0.007802     -0.003131     -0.042765
Pd     10.63982      9.72230     11.20714        -0.027773      0.001518     -0.045657
Pd     13.76843      8.53857     12.79242        -0.005095      0.003570     -0.028748
Pd     11.01388     11.12827     15.09808        -0.005118     -0.012304     -0.016961
Pd     12.82145     11.16403     13.05337         0.016591      0.011406      0.007533
Pd     14.99296     10.83011     11.37388        -0.020003      0.037256     -0.005490
Pd      6.68155      7.40657     12.31361         0.001888      0.004213      0.004476
Pd      9.27670      7.32485     10.23896        -0.043622     -0.023902     -0.009150
Pd      9.25034      7.64481     12.90161         0.003040      0.004748     -0.030202
Pd     11.72031      7.26392     11.60900        -0.009328      0.002401     -0.038832
Pd     11.45982      7.86408      8.94401        -0.067472      0.078797     -0.023182
Pd      7.21908     11.83563     12.05281         0.015200      0.008922     -0.015620
Pd      8.91481     14.65148      9.33514        -0.015213      0.003546     -0.000883
Pd      8.43882     12.72503     14.35150        -0.007449     -0.018780     -0.013028
Pd     13.24327     13.94741      8.68827         0.052784      0.028274     -0.034967
Pd     10.79026     13.11125      8.44353         0.039689      0.068678      0.004968
Pd     14.04089     11.40981      8.99392         0.030059      0.031464     -0.033469
Pd      8.64041     14.09371     12.07746        -0.005221     -0.005616      0.004107
Pd     12.23354     13.74976     13.98177         0.007617      0.012907      0.017026
Pd     11.15447     14.37420     11.04460        -0.003421      0.005241      0.012878
Pd     14.06080     13.44967     12.14153         0.007684      0.039212      0.019466
Pd     12.26093     12.07783     10.68809         0.037949      0.039185      0.009503
Pd     12.49018     11.99949      6.83279         0.028872      0.086026     -0.043354
Pd     13.57974      8.96679      7.87490        -0.008283     -0.024663      0.026516
Pd      6.92737      8.41255      8.95249        -0.038156      0.018361     -0.040661
Pd      5.51683      9.86856     11.34823        -0.026647     -0.001800      0.002535
Pd      8.93864      9.92111      8.10408         0.068767     -0.050488      0.088530
Pd      9.01499      7.38437      7.57231        -0.078904     -0.046919     -0.019661
Pd      9.42438     11.99979     10.44588         0.035424      0.016641      0.006507
Pd     11.36919     10.51347      8.77727         0.027763      0.062246     -0.064169
Pd     11.08962      9.36876      6.46574         0.023703     -0.008062      0.009552
Pd      9.69459     11.72512      6.25997         0.028953     -0.040934      0.024768
Ir     11.37359      9.07473     13.55195        -0.005359      0.007568     -0.051762
Ir     13.07223      9.37255     10.44797         0.014724      0.012032     -0.008339
Ir     10.52200     12.34601     12.70611         0.004310      0.011598     -0.011728
Ir      7.03098     10.96819      9.59606         0.040642      0.059590     -0.085030
Ir      8.20981     12.46468      8.20722         0.014410     -0.048321      0.036614
Ir      8.09512      9.35953     11.18615         0.045476     -0.047923     -0.002017
