152
# total energy = -1091.11738916 eVH     10.35389      5.87395      7.64558         0.980602     -2.090874      1.510756
H     10.62451     15.10445      7.64558        -0.459554      1.005593      1.795011
H     10.62451      5.87395     13.33282         0.978546     -0.877721     -2.161446
H     10.35389     15.10445     13.33282        -0.771715      0.833374     -1.924922
H      7.64558     10.35389      5.87395         0.389348     -0.187805      0.011795
H      7.64558     10.62451     15.10445         0.655623     -0.293251      0.162043
H     13.33282     10.62451      5.87395        -0.440271      0.028256      0.100343
H     13.33282     10.35389     15.10445        -0.591963      0.273361      0.034921
H      5.87395      7.64558     10.35389        -0.260275      1.171178      0.280340
H     15.10445      7.64558     10.62451         0.062202      0.810641     -0.020136
H      5.87395     13.33282     10.62451         0.008206     -0.484118     -0.002905
H     15.10445     13.33282     10.35389         0.130354     -0.995779      0.079978
H      5.87395     10.35389      7.64558        -0.042632     -0.022551      0.543462
H     15.10445     10.62451      7.64558         0.150877      0.049043      0.298765
H      5.87395     10.62451     13.33282        -0.133451      0.281498     -0.853984
H     15.10445     10.35389     13.33282         0.211453     -0.282033     -0.027634
H     10.35389      7.64558      5.87395        -0.312738      0.543920     -0.273483
H     10.62451      7.64558     15.10445         0.283379      0.834017      0.412221
H     10.62451     13.33282      5.87395        -0.176336     -1.035545     -0.195937
H     10.35389     13.33282     15.10445        -0.207381     -1.034066      0.316680
H      7.64558      5.87395     10.35389         0.847363     -0.228729      0.129807
H      7.64558     15.10445     10.62451         0.837744     -0.009952     -0.107303
H     13.33282      5.87395     10.62451        -0.844074     -0.071215      0.179337
H     13.33282     15.10445     10.35389        -0.538848      0.134682      0.020530
H     12.45634     12.45634     19.01126         0.261996      0.251054     -0.241287
H     19.01126     19.01126     19.01126        -0.259208     -0.254211     -0.238564
H     19.01126     12.45634     12.45634        -0.252322      0.264607      0.237214
H     12.45634     19.01126     12.45634         0.252544     -0.264370      0.235045
C     10.35284      5.61067      6.59456        -0.497826      0.047889     -2.314982
C     10.62556     15.36773      6.59456         0.251992     -0.144728     -1.988410
C     10.62556      5.61067     14.38384        -0.146850     -0.780830      2.300989
C     10.35284     15.36773     14.38384         0.251307      0.159948      1.920334
C      6.59456     10.35284      5.61067        -0.524908     -0.032706     -0.349704
C      6.59456     10.62556     15.36773        -1.006780     -0.010859      0.539857
C     14.38384     10.62556      5.61067         0.593933      0.006434     -0.201251
C     14.38384     10.35284     15.36773         0.814038     -0.113532      0.293954
C      5.61067      6.59456     10.35284        -0.478624     -0.756803      0.246002
C     15.36773      6.59456     10.62556         0.339734     -1.293850     -0.003483
C      5.61067     14.38384     10.62556        -0.441415      0.920361      0.028242
C     15.36773     14.38384     10.35284         0.451328      0.797715      0.067204
C      5.61067     10.35284      6.59456        -0.563887      0.116989     -1.701575
C     15.36773     10.62556      6.59456         0.677667      0.028184     -1.885140
C      5.61067     10.62556     14.38384        -0.667186      0.029314      1.921203
C     15.36773     10.35284     14.38384         0.648979     -0.113265      1.512334
C     10.35284      6.59456      5.61067         0.098070     -1.580792     -0.920330
C     10.62556      6.59456     15.36773         0.039960     -2.156198      1.224138
C     10.62556     14.38384      5.61067         0.128831      1.590342     -0.706867
C     10.35284     14.38384     15.36773        -0.013590      2.148408      0.953875
C      6.59456      5.61067     10.35284        -0.487065     -0.922393      0.104452
C      6.59456     15.36773     10.62556        -1.564495      0.364356      0.026674
C     14.38384      5.61067     10.62556         1.951369     -0.739320     -0.089781
C     14.38384     15.36773     10.35284         0.362381      0.881248      0.016613
C     10.40319      3.19606      7.29314        -0.025164      0.644995     -0.304870
C     10.35913      4.25547      6.23373         0.099157     -0.863970      0.796403
C      0.08601      7.29314      7.29314        -0.027400     -0.699075     -0.283002
C      0.13007      6.23373      6.23373        -0.149478      0.828818      0.865993
C      0.08601      3.19606      3.19606        -0.075381      0.453891      0.333170
C      0.13007      4.25547      4.25547         0.035629     -0.899027     -0.535260
C     10.40319      7.29314      3.19606         0.036899     -0.374122      0.280177
C     10.35913      6.23373      4.25547         0.043405      0.730651     -0.580257
C      7.29314     10.40319      3.19606        -0.364545      0.026476      0.617319
C      6.23373     10.35913      4.25547         0.318257      0.000751     -0.405431
C      7.29314      0.08601      7.29314        -0.413786      0.059302     -0.444484
C      6.23373      0.13007      6.23373         0.181315      0.102201      0.559865
C      3.19606      0.08601      3.19606         0.254219      0.021144      0.687892
C      4.25547      0.13007      4.25547        -0.451837      0.151645     -0.343193
C      3.19606     10.40319      7.29314         0.517412     -0.005572     -0.650361
C      4.25547     10.35913      6.23373        -0.375113      0.042899      0.654518
C      3.19606      7.29314     10.40319         0.321869     -0.554939     -0.014886
C      4.25547      6.23373     10.35913        -0.775767      0.322258     -0.088640
C      7.29314      7.29314      0.08601        -0.300150     -0.194457     -0.001971
C      6.23373      6.23373      0.13007         0.074849      0.457294     -0.034090
C      3.19606      3.19606      0.08601         0.410707      0.129145     -0.020861
C      4.25547      4.25547      0.13007        -0.096423     -0.310119     -0.029184
C      7.29314      3.19606     10.40319        -0.408898      0.556211     -0.015420
C      6.23373      4.25547     10.35913         0.536044     -0.722281     -0.061431
O     10.43466      3.58206      8.50569        -0.007924      0.140390      0.277551
O     10.54374     17.39634      8.50569         0.022454     -0.156083      0.283750
O     10.54374      3.58206     12.47271         0.070727      0.189898     -0.346727
O     10.43466     17.39634     12.47271        -0.072888     -0.240798     -0.336644
O      8.50569     10.43466      3.58206         0.464665     -0.013107      0.122626
O      8.50569     10.54374     17.39634         0.475652      0.057873     -0.133526
O     12.47271     10.54374      3.58206        -0.379421      0.030209      0.090402
O     12.47271     10.43466     17.39634        -0.544446     -0.053278     -0.132473
O      3.58206      8.50569     10.43466         0.118017      0.533249     -0.037565
O     17.39634      8.50569     10.54374        -0.143305      0.446623      0.029568
O      3.58206     12.47271     10.54374         0.094723     -0.371470      0.049530
O     17.39634     12.47271     10.43466        -0.205543     -0.615380     -0.006953
O      3.58206     10.43466      8.50569         0.205158     -0.067009      0.582897
O     17.39634     10.54374      8.50569        -0.165672      0.006310      0.483610
O      3.58206     10.54374     12.47271         0.324088     -0.060520     -0.574133
O     17.39634     10.43466     12.47271        -0.206044     -0.009195     -0.585074
O     10.43466      8.50569      3.58206         0.007454      0.481697      0.254743
O     10.54374      8.50569     17.39634         0.102174      0.648123     -0.338820
O     10.54374     12.47271      3.58206         0.015512     -0.561745      0.278114
O     10.43466     12.47271     17.39634        -0.076519     -0.644017     -0.337919
O      8.50569      3.58206     10.43466         0.551993      0.164712     -0.039404
O      8.50569     17.39634     10.54374         0.455448     -0.181627      0.038605
O     12.47271      3.58206     10.54374        -0.498748      0.183981      0.003167
O     12.47271     17.39634     10.43466        -0.531302     -0.166530     -0.028372
O     11.90042     11.90042     19.56718        -0.302872     -0.297635      0.243407
O     19.56718     19.56718     19.56718         0.304678      0.297435      0.240055
O     19.56718     11.90042     11.90042         0.301948     -0.317091     -0.271364
O     11.90042     19.56718     11.90042        -0.292922      0.313554     -0.264854
O      9.45224      1.03696      9.45224        -0.043431      0.037546     -0.111596
O      1.03696      9.45224      9.45224         0.044601     -0.035988     -0.110025
O      1.03696      1.03696      1.03696         0.068563      0.048818      0.080726
O      9.45224      9.45224      1.03696        -0.058450     -0.048849      0.079844
Zr     10.48920      2.52580     10.48920        -0.101086     -0.072788      0.050559
Zr     10.48920     18.45260     10.48920         0.073100      0.079629      0.015954
Zr     10.48920     10.48920      2.52580        -0.009840      0.015523     -0.199782
Zr     10.48920     10.48920     18.45260         0.018485      0.008810      0.269922
Zr      2.52580     10.48920     10.48920        -0.122699      0.007204     -0.046517
Zr     18.45260     10.48920     10.48920         0.178419      0.037669     -0.001681
Pd     13.41448      8.50191      7.98597        -0.073583     -0.214449     -0.108641
Pd      8.76612     14.05545     11.97265         0.014336      0.272849      0.150909
Pd     12.14812     11.14902     10.66110         0.143207     -0.183679     -0.069443
Pd     14.55310     10.81782     11.78902         0.166624      0.134803     -0.062761
Pd     11.18210      9.13150      6.58112         0.105711     -0.150385     -0.378364
Pd      7.37602      7.52348      9.03625        -0.301025     -0.096628     -0.472316
Ir      9.86242     11.59473     11.97192         0.148665      0.066337      0.219095
Ir     13.30345      8.68056     10.65794        -0.311085      0.089710      0.159361
Ir     12.11208     11.08013      7.98480        -0.100346      0.351389      0.007077
Ir      8.83262     13.85102      9.25156         0.059410      0.349117     -0.035938
Ir     11.00141      9.18142     12.04814        -0.023943      0.101448     -0.407200
Ir      8.70973      9.53342      8.03430        -0.162364      0.550386     -0.165181
Ir     13.34236     12.98088      9.17911         0.157079      0.069190     -0.012051
Ir     11.16300     13.42835      7.95727         0.080954      0.094972     -0.081594
Ir     14.31793     10.61513      9.28323         0.086518     -0.025197      0.073551
Ir      9.84088      7.05084     10.76654        -0.137137     -0.003746     -0.313843
Ir      7.61961     11.96861      7.97990         0.270548      0.079332      0.004990
Ir      9.78082      7.34651      8.13766        -0.196926     -0.160877     -0.091979
Ir     11.23422     13.53609     13.20512         0.361852     -0.120075     -0.175349
Ir     12.11396      6.90993     12.09740        -0.065468     -0.185918     -0.218188
Ir      9.84947     11.46137      9.32851        -0.126815      0.269631     -0.105632
Ir     13.31011      8.65229     13.40444        -0.006912      0.267168     -0.104663
Ir     11.06172      9.10907      9.36602         0.109998      0.122172      0.209229
Ir     11.01305     13.58396     10.54302         0.310568      0.187202      0.050037
Ir     13.28681     13.16674     11.90644         0.012528      0.157708     -0.019160
Ir     12.18458     11.19954     13.29103        -0.073781      0.263874      0.174163
Ir      9.87538     11.39047      6.69317        -0.115783      0.102899      0.144076
Ir     11.97432      6.71417      9.44202         0.128933      0.064923      0.422643
Ir      7.52708      7.57581     12.07135        -0.395536     -0.068115     -0.336726
Ir      7.64399     12.00617     10.64297        -0.003653     -0.008370     -0.100126
Ir     11.09218      9.33330     14.59006        -0.246373      0.240035      0.023302
Ir      7.58748     12.00746     13.24240        -0.098409     -0.122478     -0.085468
Ir      6.49863     10.02758      9.40669         0.174186      0.153359     -0.117927
Ir      8.69966      9.63694     13.33591        -0.089546      0.206744      0.143974
Ir      6.44329      9.86327     11.78837         0.022697      0.372269      0.021120
Ir      9.52104      7.26424     13.36365         0.112610     -0.139583      0.192369
Ir      9.83431     11.56837     14.57701         0.267352     -0.223050     -0.261469
Ir      8.76651      9.45388     10.69825        -0.682092      0.619846     -0.120469
