152
# total energy = -1060.07979976 eVH     10.35389      5.87395      7.64558        -0.285209      0.049041      1.129549
H     10.62451     15.10445      7.64558         0.066402     -0.081233      0.931111
H     10.62451      5.87395     13.33282        -0.264346      0.069616     -0.790547
H     10.35389     15.10445     13.33282         0.084604     -0.304942     -0.864438
H      7.64558     10.35389      5.87395         0.933744     -0.138888      0.187475
H      7.64558     10.62451     15.10445         0.328773     -0.037282     -0.071875
H     13.33282     10.62451      5.87395        -0.861087      0.191857      0.213017
H     13.33282     10.35389     15.10445        -0.276894     -0.015743     -0.068695
H      5.87395      7.64558     10.35389         0.088987      0.421840     -0.009271
H     15.10445      7.64558     10.62451         0.001320      0.477138     -0.049990
H      5.87395     13.33282     10.62451        -0.010819     -0.959935      0.085788
H     15.10445     13.33282     10.35389        -0.070208     -0.321331     -0.000614
H      5.87395     10.35389      7.64558         0.286476      0.108000      0.399713
H     15.10445     10.62451      7.64558        -0.120898     -0.175521      0.669839
H      5.87395     10.62451     13.33282        -0.078276      0.459167     -0.617524
H     15.10445     10.35389     13.33282         0.249534     -0.634228     -0.830763
H     10.35389      7.64558      5.87395        -0.043589      0.487995      0.337797
H     10.62451      7.64558     15.10445         0.281574      0.800076     -0.013241
H     10.62451     13.33282      5.87395         0.131699     -0.568670      0.205833
H     10.35389     13.33282     15.10445         0.031538     -0.286201     -0.153694
H      7.64558      5.87395     10.35389         0.347871      0.101543      0.037582
H      7.64558     15.10445     10.62451         0.384089     -0.121008      0.167832
H     13.33282      5.87395     10.62451        -0.310979      0.131914     -0.023972
H     13.33282     15.10445     10.35389        -0.658331     -0.113163      0.138975
H     12.45634     12.45634     19.01126         0.256338      0.271527     -0.228163
H     19.01126     19.01126     19.01126        -0.246068     -0.268381     -0.246077
H     19.01126     12.45634     12.45634        -0.250853      0.270330      0.235434
H     12.45634     19.01126     12.45634         0.290144     -0.236051      0.234364
C     10.35284      5.61067      6.59456         0.399814     -0.417734     -1.418811
C     10.62556     15.36773      6.59456        -0.150248      0.583379     -0.646068
C     10.62556      5.61067     14.38384         0.379421     -0.332024      0.819003
C     10.35284     15.36773     14.38384        -0.221487      0.207426      1.080615
C      6.59456     10.35284      5.61067        -1.392160      0.025316     -0.234920
C      6.59456     10.62556     15.36773        -0.644837      0.063712      0.365960
C     14.38384     10.62556      5.61067         1.296884     -0.166207     -0.637371
C     14.38384     10.35284     15.36773         0.348968     -0.123292      0.352729
C      5.61067      6.59456     10.35284        -0.287220     -0.666811     -0.023836
C     15.36773      6.59456     10.62556         0.416862     -0.954067      0.045839
C      5.61067     14.38384     10.62556        -0.137387      1.165055     -0.193355
C     15.36773     14.38384     10.35284         0.481660      0.659990     -0.025188
C      5.61067     10.35284      6.59456        -0.377357     -0.098374     -0.731849
C     15.36773     10.62556      6.59456         0.414768      0.116736     -0.746552
C      5.61067     10.62556     14.38384        -0.388867     -0.170375      1.226184
C     15.36773     10.35284     14.38384         0.267138      0.191660      1.473621
C     10.35284      6.59456      5.61067        -0.056461     -0.732191     -0.602532
C     10.62556      6.59456     15.36773        -0.123414     -0.925407      0.357488
C     10.62556     14.38384      5.61067        -0.473992      0.401928     -0.719683
C     10.35284     14.38384     15.36773        -0.160604      0.656895      0.433118
C      6.59456      5.61067     10.35284        -0.528244     -0.341403      0.019942
C      6.59456     15.36773     10.62556        -0.386891      0.451193      0.058103
C     14.38384      5.61067     10.62556         0.442028     -0.353834     -0.000344
C     14.38384     15.36773     10.35284         1.127481      0.508169     -0.070715
C     10.40319      3.19606      7.29314        -0.002071      0.698434     -0.334451
C     10.35913      4.25547      6.23373         0.010329     -0.421076      0.290041
C      0.08601      7.29314      7.29314        -0.015280     -0.360334     -0.505518
C      0.13007      6.23373      6.23373        -0.063071      0.873313      0.072651
C      0.08601      3.19606      3.19606        -0.003348      0.689116      0.264683
C      0.13007      4.25547      4.25547         0.034594     -0.270637     -0.538772
C     10.40319      7.29314      3.19606        -0.067134     -1.149376      0.577677
C     10.35913      6.23373      4.25547        -0.038212      0.363933     -0.194686
C      7.29314     10.40319      3.19606        -1.085662     -0.057342      0.191007
C      6.23373     10.35913      4.25547         0.367237      0.084682     -0.541777
C      7.29314      0.08601      7.29314        -0.424630      0.034516     -0.527570
C      6.23373      0.13007      6.23373         0.183950      0.127674      0.129098
C      3.19606      0.08601      3.19606         0.705346      0.027299      0.165527
C      4.25547      0.13007      4.25547        -0.172148     -0.047566     -0.358822
C      3.19606     10.40319      7.29314         0.378931     -0.024920     -0.902049
C      4.25547     10.35913      6.23373        -0.149838     -0.076296      0.097943
C      3.19606      7.29314     10.40319         0.602058     -0.396857      0.002196
C      4.25547      6.23373     10.35913        -0.111895      0.185239      0.003082
C      7.29314      7.29314      0.08601        -0.415163     -0.315047     -0.015890
C      6.23373      6.23373      0.13007         0.173186      0.186667     -0.056449
C      3.19606      3.19606      0.08601         0.289670      0.482465     -0.024815
C      4.25547      4.25547      0.13007        -0.398706     -0.228216     -0.038518
C      7.29314      3.19606     10.40319        -0.276216      0.588532     -0.010644
C      6.23373      4.25547     10.35913         0.009670     -0.101742      0.019650
O     10.43466      3.58206      8.50569        -0.027017      0.090117      0.317464
O     10.54374     17.39634      8.50569         0.063264     -0.131946      0.600400
O     10.54374      3.58206     12.47271         0.027512      0.104677     -0.392062
O     10.43466     17.39634     12.47271         0.091198     -0.048674     -0.389123
O      8.50569     10.43466      3.58206         0.718156     -0.064475      0.013510
O      8.50569     10.54374     17.39634         0.473942      0.057684     -0.077130
O     12.47271     10.54374      3.58206        -0.656073      0.113550      0.207602
O     12.47271     10.43466     17.39634        -0.283678     -0.000721      0.022385
O      3.58206      8.50569     10.43466         0.039423      0.457577     -0.066679
O     17.39634      8.50569     10.54374        -0.056574      0.454001      0.056517
O      3.58206     12.47271     10.54374         0.112148     -0.586749      0.002093
O     17.39634     12.47271     10.43466        -0.171214     -0.735818     -0.055997
O      3.58206     10.43466      8.50569         0.211490     -0.062557      0.789915
O     17.39634     10.54374      8.50569        -0.105520      0.076574      0.568117
O      3.58206     10.54374     12.47271        -0.003282     -0.003434     -0.263653
O     17.39634     10.43466     12.47271         0.040049     -0.012371     -0.220270
O     10.43466      8.50569      3.58206        -0.103763      0.566057     -0.108733
O     10.54374      8.50569     17.39634         0.066191      0.502499     -0.087745
O     10.54374     12.47271      3.58206         0.105167     -0.631840      0.133952
O     10.43466     12.47271     17.39634        -0.062011     -0.660704     -0.256984
O      8.50569      3.58206     10.43466         0.396974      0.027235     -0.037030
O      8.50569     17.39634     10.54374         0.633666     -0.154780      0.047945
O     12.47271      3.58206     10.54374        -0.509557      0.124605      0.033864
O     12.47271     17.39634     10.43466        -0.621170     -0.133215      0.039725
O     11.90042     11.90042     19.56718        -0.275245     -0.307959      0.231224
O     19.56718     19.56718     19.56718         0.304289      0.320371      0.300107
O     19.56718     11.90042     11.90042         0.285475     -0.325957     -0.232335
O     11.90042     19.56718     11.90042        -0.315810      0.230009     -0.201945
O      9.45224      1.03696      9.45224        -0.079915      0.082297     -0.073328
O      1.03696      9.45224      9.45224         0.099185     -0.113369     -0.051057
O      1.03696      1.03696      1.03696         0.082753      0.054012      0.098938
O      9.45224      9.45224      1.03696        -0.059048     -0.130918      0.132055
Zr     10.48920      2.52580     10.48920         0.033430     -0.085030      0.086663
Zr     10.48920     18.45260     10.48920        -0.173221      0.260047     -0.349575
Zr     10.48920     10.48920      2.52580         0.115090      0.356366     -0.351281
Zr     10.48920     10.48920     18.45260        -0.084839     -0.221280      0.199280
Zr      2.52580     10.48920     10.48920        -0.250628      0.131230      0.231970
Zr     18.45260     10.48920     10.48920         0.221249     -0.115630      0.000972
Pd      9.39118     14.26402      9.36706         0.006517      0.022680     -0.046912
Pd      8.60716     13.68556     12.97962         0.002072     -0.016368      0.025243
Pd     12.03168     14.40962      8.73399         0.011815     -0.002970      0.004205
Pd     12.79450     12.83575     10.62521        -0.045883      0.016291      0.034081
Pd     12.13156      7.13842     12.63938        -0.001180      0.001904     -0.013718
Pd     11.21925     14.83359     11.50783        -0.022279      0.017363     -0.030488
Pd     10.09244     12.49209     11.11711        -0.050579      0.053826     -0.028739
Pd     13.48058     12.12669      7.97660         0.006321      0.016291      0.005098
Pd     11.47938     11.55145      6.10893         0.009895      0.005948     -0.011267
Pd      7.87318      8.55133      7.53293         0.013945     -0.051653      0.003937
Pd      8.73354     11.73628      6.87632        -0.009228      0.011252     -0.013165
Pd     10.32412      9.46371      8.14602        -0.022515     -0.000677     -0.004917
Pd      8.51019     14.44317      6.84862        -0.007788      0.012742     -0.038521
Pd     12.36660      9.01815      6.56327         0.012432      0.004302      0.001222
Pd      9.73762      9.60854      5.55820        -0.008105      0.007187     -0.007375
Pd      6.85666      9.45021     12.18169        -0.010999     -0.002370     -0.010059
Pd     12.20289      6.69646      7.89187        -0.000720      0.011441      0.011488
Pd      5.94243     10.46303      9.72200        -0.008845     -0.006290      0.001282
Pd      7.58099      7.15899     13.31168         0.006963      0.031928      0.036517
Ir     11.79385      9.72748     13.05206        -0.028634     -0.026603     -0.009427
Ir     13.57543      8.99030     11.44224        -0.026134      0.026371      0.007418
Ir      9.44214      8.83491     13.91671        -0.027684     -0.002424      0.055579
Ir     10.56388     10.96535     14.85979        -0.019899     -0.019830      0.016040
Ir      7.28829     12.01969     11.36112        -0.016806     -0.004136     -0.014269
Ir     14.69387     10.83080     10.08885        -0.014498      0.031362      0.040962
Ir     12.18602     10.51081      9.68008         0.005690     -0.011023     -0.022240
Ir      8.77390     11.02290     13.00972         0.015514     -0.015829     -0.000200
Ir     10.13214      9.86363     11.20839        -0.000788      0.041316     -0.017584
Ir     13.77717     11.36503     12.40664        -0.029662      0.005112      0.043679
Ir     11.67202     12.32300     13.09653        -0.068532     -0.008900      0.011313
Ir      8.52546     11.07779      9.37209        -0.024188      0.012301     -0.017331
Ir     11.58926      7.98328     10.08767         0.029217      0.027615      0.002840
Ir      7.23614     13.00686      8.69343         0.009286      0.022097     -0.006311
Ir      9.51536      6.99978      9.12315         0.008657     -0.014437      0.042870
Ir      8.05929      8.74917     10.09014        -0.012322      0.025238     -0.008680
Ir     10.75019     12.10026      8.52703        -0.014438      0.012878      0.000192
Ir      9.54778      7.47005     11.67708        -0.015552      0.043669      0.057653
Ir     13.67279      8.73452      8.79524         0.003859      0.021248      0.049392
