152
# total energy = -1023.44181298 eVH     10.35389      5.87395      7.64558         0.483068      0.080015      0.750242
H     10.62451     15.10445      7.64558        -0.026125     -0.141793      0.631266
H     10.62451      5.87395     13.33282         0.136275      0.157640     -0.627906
H     10.35389     15.10445     13.33282        -0.334927     -0.046633     -0.751658
H      7.64558     10.35389      5.87395         0.304171     -0.018245      0.182867
H      7.64558     10.62451     15.10445         1.012613     -0.405989      0.024859
H     13.33282     10.62451      5.87395        -0.744660      0.003599      0.180524
H     13.33282     10.35389     15.10445        -0.674312     -0.219248      0.014222
H      5.87395      7.64558     10.35389         0.205157      0.829637     -0.108134
H     15.10445      7.64558     10.62451        -0.150472      0.401325     -0.053808
H      5.87395     13.33282     10.62451         0.181166     -0.477399     -0.070542
H     15.10445     13.33282     10.35389        -0.119214     -0.918941      0.103907
H      5.87395     10.35389      7.64558         0.145892      0.103023      0.437446
H     15.10445     10.62451      7.64558         0.098835      0.068086      1.162371
H      5.87395     10.62451     13.33282         0.114480     -0.039588     -0.376359
H     15.10445     10.35389     13.33282        -0.113081     -0.087615     -0.589383
H     10.35389      7.64558      5.87395        -0.069632      0.847697      0.223339
H     10.62451      7.64558     15.10445         0.011878      0.312729     -0.180146
H     10.62451     13.33282      5.87395        -0.035815     -0.555640      0.220166
H     10.35389     13.33282     15.10445        -0.676977     -0.873232     -0.028294
H      7.64558      5.87395     10.35389         0.466876      0.111697      0.042016
H      7.64558     15.10445     10.62451         0.785582     -0.283559      0.047957
H     13.33282      5.87395     10.62451        -0.452727      0.173613     -0.055057
H     13.33282     15.10445     10.35389        -0.619278     -0.080909      0.203734
H     12.45634     12.45634     19.01126         0.244433      0.280165     -0.226641
H     19.01126     19.01126     19.01126        -0.253289     -0.238784     -0.252993
H     19.01126     12.45634     12.45634        -0.246009      0.273831      0.228441
H     12.45634     19.01126     12.45634         0.228527     -0.262231      0.244150
C     10.35284      5.61067      6.59456        -0.218439     -0.508610      0.018355
C     10.62556     15.36773      6.59456         0.040640      0.414820     -0.864643
C     10.62556      5.61067     14.38384        -0.058260     -0.125532      0.749905
C     10.35284     15.36773     14.38384         0.046055      0.811059      0.320696
C      6.59456     10.35284      5.61067        -0.380347     -0.033925     -0.232218
C      6.59456     10.62556     15.36773        -1.130092      0.434751      0.433702
C     14.38384     10.62556      5.61067         0.365505      0.273269     -0.586459
C     14.38384     10.35284     15.36773         0.845909     -0.079440      0.387339
C      5.61067      6.59456     10.35284        -0.348358     -0.550385      0.372889
C     15.36773      6.59456     10.62556         0.167928     -0.507802      0.035335
C      5.61067     14.38384     10.62556        -0.106329      0.468613     -0.000725
C     15.36773     14.38384     10.35284         0.283454     -0.157565     -0.206993
C      5.61067     10.35284      6.59456        -0.270016     -0.031041     -0.790439
C     15.36773     10.62556      6.59456         0.680396     -0.326944     -1.315912
C      5.61067     10.62556     14.38384        -0.551566     -0.022117      0.172786
C     15.36773     10.35284     14.38384         0.653935     -0.122180      1.341308
C     10.35284      6.59456      5.61067        -0.255272     -0.568756     -0.711720
C     10.62556      6.59456     15.36773         0.038324     -0.318648      0.158317
C     10.62556     14.38384      5.61067         0.144140      1.092001     -0.426774
C     10.35284     14.38384     15.36773         0.052327      0.358404      0.813862
C      6.59456      5.61067     10.35284        -0.296587     -0.811597      0.068081
C      6.59456     15.36773     10.62556        -1.283932      0.333008      0.055580
C     14.38384      5.61067     10.62556         0.649934     -0.231388      0.016663
C     14.38384     15.36773     10.35284        -0.461736      0.638847     -0.369333
C     10.40319      3.19606      7.29314         0.019910      0.916028     -0.381594
C     10.35913      4.25547      6.23373         0.032847     -0.453261      0.624051
C      0.08601      7.29314      7.29314        -0.002764     -0.427597     -0.409359
C      0.13007      6.23373      6.23373        -0.001184      0.046466      0.117723
C      0.08601      3.19606      3.19606        -0.015910      0.793810      0.175782
C      0.13007      4.25547      4.25547        -0.073509     -0.180351     -0.243081
C     10.40319      7.29314      3.19606         0.009596     -0.899751      0.502857
C     10.35913      6.23373      4.25547         0.035403      0.474263     -0.624880
C      7.29314     10.40319      3.19606        -0.383066      0.036924      0.885356
C      6.23373     10.35913      4.25547         0.225824      0.068005     -0.108384
C      7.29314      0.08601      7.29314        -0.418850     -0.029261     -0.285250
C      6.23373      0.13007      6.23373         0.460591     -0.057937      0.490639
C      3.19606      0.08601      3.19606         0.693865     -0.020173      0.426833
C      4.25547      0.13007      4.25547        -0.097971     -0.053393     -0.428849
C      3.19606     10.40319      7.29314         0.764783     -0.007430     -0.647392
C      4.25547     10.35913      6.23373        -0.211345      0.076212      0.177182
C      3.19606      7.29314     10.40319         0.516696     -1.284301     -0.033838
C      4.25547      6.23373     10.35913        -0.496797      0.821532      0.050197
C      7.29314      7.29314      0.08601        -0.544664     -0.238814     -0.016432
C      6.23373      6.23373      0.13007         0.174645      0.139022     -0.011798
C      3.19606      3.19606      0.08601         0.241060      0.316594     -0.024798
C      4.25547      4.25547      0.13007        -0.066204     -0.043702      0.009461
C      7.29314      3.19606     10.40319        -0.354873      0.702682      0.007460
C      6.23373      4.25547     10.35913         1.056926      0.054410      0.002361
O     10.43466      3.58206      8.50569        -0.041981      0.029654      0.409974
O     10.54374     17.39634      8.50569        -0.020795     -0.113664      0.490682
O     10.54374      3.58206     12.47271         0.048607      0.017705     -0.248519
O     10.43466     17.39634     12.47271        -0.042945     -0.083435     -0.555077
O      8.50569     10.43466      3.58206         0.363372     -0.023507     -0.024984
O      8.50569     10.54374     17.39634         0.519388      0.032724     -0.150257
O     12.47271     10.54374      3.58206        -0.635238     -0.022165      0.167126
O     12.47271     10.43466     17.39634        -0.703977     -0.021117     -0.097398
O      3.58206      8.50569     10.43466         0.168267      1.105277      0.003055
O     17.39634      8.50569     10.54374        -0.043585      0.372434      0.071125
O      3.58206     12.47271     10.54374         0.084762     -0.501242      0.032940
O     17.39634     12.47271     10.43466        -0.166526     -0.704752      0.011092
O      3.58206     10.43466      8.50569        -0.028489     -0.066752      0.507477
O     17.39634     10.54374      8.50569        -0.119792      0.043953      0.417104
O      3.58206     10.54374     12.47271         0.050954      0.008213     -0.439125
O     17.39634     10.43466     12.47271        -0.227680      0.038157     -0.750520
O     10.43466      8.50569      3.58206         0.077836      0.806883      0.198537
O     10.54374      8.50569     17.39634         0.073350      0.581301     -0.112298
O     10.54374     12.47271      3.58206        -0.022809     -0.825103      0.234545
O     10.43466     12.47271     17.39634         0.016537     -0.968563     -0.220356
O      8.50569      3.58206     10.43466         0.517544      0.095125     -0.021681
O      8.50569     17.39634     10.54374         0.623547     -0.230756     -0.026872
O     12.47271      3.58206     10.54374        -0.446173      0.133680      0.049043
O     12.47271     17.39634     10.43466        -0.429256      0.023733     -0.015549
O     11.90042     11.90042     19.56718        -0.265321     -0.330945      0.247225
O     19.56718     19.56718     19.56718         0.287339      0.272745      0.302639
O     19.56718     11.90042     11.90042         0.274054     -0.326940     -0.217719
O     11.90042     19.56718     11.90042        -0.271872      0.286505     -0.263298
O      9.45224      1.03696      9.45224        -0.086561      0.052304     -0.053488
O      1.03696      9.45224      9.45224         0.068397     -0.160338     -0.085304
O      1.03696      1.03696      1.03696         0.020288      0.056701      0.183856
O      9.45224      9.45224      1.03696        -0.052954     -0.082457      0.134813
Zr     10.48920      2.52580     10.48920        -0.032862     -0.075489     -0.100725
Zr     10.48920     18.45260     10.48920         0.082027      0.267894     -0.003024
Zr     10.48920     10.48920      2.52580         0.003048     -0.064155     -0.490813
Zr     10.48920     10.48920     18.45260        -0.234437     -0.006271      0.439587
Zr      2.52580     10.48920     10.48920        -0.405952      0.268812      0.095746
Zr     18.45260     10.48920     10.48920         0.214069      0.068174     -0.301852
Pd      8.69061      9.95589     13.41257         0.134164     -0.398123     -0.323775
Pd     10.53024      9.51511     10.36178         0.040834      0.728847      0.441796
Pd     13.58508      8.71998     12.56337        -0.327735     -0.138723     -0.108673
Pd     10.83443     10.69903     15.17966        -0.040692      0.042468     -0.563977
Pd     12.97068     11.31035     13.27307        -0.280323     -0.390498      0.205288
Pd     14.98446     10.71031     11.35874        -0.021877      0.317952     -0.435157
Pd      6.58343      7.87575     12.45324         0.257798      0.067204      0.067990
Pd      9.28224      7.20636      9.69298         0.026730     -0.052780     -0.001159
Pd      9.30229      7.46605     12.43289         0.046769     -0.021283      0.207512
Pd     11.68638      7.36022     11.21268         0.276116     -0.577084      0.162616
Pd     11.74186      7.81623      8.53675        -0.160226     -0.210153      0.096818
Pd      7.33197     11.74384     11.67768        -0.099452     -0.103075     -0.183463
Pd      9.30335     14.56011      9.54817        -0.245935      0.172472     -0.029525
Pd      8.06881     12.40782     14.26904         0.073904      0.183247      0.006713
Pd     14.16606     14.23038      8.30321        -0.079635     -0.152346      0.119518
Pd     11.61688     13.53148      8.85011         0.084662     -0.176903     -0.070853
Pd     14.16630     11.62663      8.91854        -0.298939      0.049792      0.066629
Pd      8.77524     13.94947     12.24875        -0.153866     -0.073647     -0.168382
Pd     12.12869     13.73175     14.17047         0.351426     -0.209787     -0.417838
Pd     11.37841     14.18696     11.51257         0.004052     -0.204526     -0.124124
Pd     13.94345     13.47272     12.20870         0.400056      0.418203     -0.113160
Pd     12.35291     11.82153     10.77506         0.149885     -0.453959      0.420224
Pd     12.74227     12.58460      6.68005         0.103587     -0.004495     -0.012533
Pd     13.99430      8.92303      7.70099        -0.068574     -0.006287      0.074290
Pd      6.99409      8.44696      8.67340         0.046981     -0.083207     -0.228582
Pd      5.65999     10.07394     10.32935        -0.002685      0.113954      0.113869
Pd      9.41015      9.31649      7.73899        -0.023454      0.096772      0.091864
Pd      8.46848      6.91750      7.13099         0.044995     -0.236408     -0.224137
Pd      9.74218     12.01845     10.49568        -0.024575     -0.040030     -0.117658
Pd     11.65896     10.65978      8.24643         0.255303      0.471909     -0.013862
Pd     11.70530      8.97164      6.13240        -0.014295      0.242743     -0.068727
Pd     10.22850     11.28718      6.11817         0.084637     -0.143321     -0.620277
Ir     11.13380      9.40198     12.88149        -0.338054      0.813327     -0.185771
Ir     13.15605      9.40187     10.07575         0.185098      0.097653      0.215015
Ir     10.41319     12.01999     12.92697         0.511936     -0.468599     -0.088441
Ir      7.80205     10.94136      9.09823        -0.188791     -0.304437      0.331132
Ir      9.18589     12.47059      8.00286         0.298985      0.218722      0.807121
Ir      8.12910      9.25964     10.96993        -0.298050      0.288009     -0.216460
