152
# total energy = -1092.41140582 eVH     10.35389      5.87395      7.64558         0.749856     -0.497325      1.500668
H     10.62451     15.10445      7.64558        -0.767582      0.751481      1.906167
H     10.62451      5.87395     13.33282         0.392096     -0.175515     -1.683100
H     10.35389     15.10445     13.33282        -0.621499      0.347507     -1.818421
H      7.64558     10.35389      5.87395         0.373580     -0.036245     -0.007159
H      7.64558     10.62451     15.10445         0.457373     -0.071011      0.039082
H     13.33282     10.62451      5.87395        -0.501755      0.003851      0.091380
H     13.33282     10.35389     15.10445        -0.483248      0.130146      0.024939
H      5.87395      7.64558     10.35389         0.044207      1.362736     -0.145245
H     15.10445      7.64558     10.62451        -0.013032      0.673014      0.000413
H      5.87395     13.33282     10.62451        -0.063178     -0.519674      0.010308
H     15.10445     13.33282     10.35389         0.258670     -1.603714      0.187422
H      5.87395     10.35389      7.64558        -0.347457     -0.302947     -0.027495
H     15.10445     10.62451      7.64558         0.320265      0.254858      0.034053
H      5.87395     10.62451     13.33282        -0.187219      0.037608      0.029462
H     15.10445     10.35389     13.33282         0.070349     -0.168549     -0.001416
H     10.35389      7.64558      5.87395        -0.220928      0.482671     -0.073500
H     10.62451      7.64558     15.10445         0.107450      0.551117      0.289212
H     10.62451     13.33282      5.87395        -0.129493     -0.945947     -0.192020
H     10.35389     13.33282     15.10445        -0.227090     -0.695410      0.279411
H      7.64558      5.87395     10.35389         0.410710     -0.043988     -0.125295
H      7.64558     15.10445     10.62451         0.484211      0.001818     -0.122108
H     13.33282      5.87395     10.62451        -0.397497     -0.008156      0.046445
H     13.33282     15.10445     10.35389        -0.459567      0.189267     -0.054698
H     12.45634     12.45634     19.01126         0.258252      0.249897     -0.243582
H     19.01126     19.01126     19.01126        -0.256269     -0.246635     -0.247959
H     19.01126     12.45634     12.45634        -0.255161      0.266588      0.234040
H     12.45634     19.01126     12.45634         0.261558     -0.264739      0.229743
C     10.35284      5.61067      6.59456        -0.534145     -0.107452     -1.774728
C     10.62556     15.36773      6.59456         0.469974      0.048735     -2.039704
C     10.62556      5.61067     14.38384        -0.431362     -0.038575      1.763328
C     10.35284     15.36773     14.38384         0.405947      0.156201      1.984702
C      6.59456     10.35284      5.61067        -0.625243     -0.015589     -0.264529
C      6.59456     10.62556     15.36773        -0.877438     -0.048027      0.140389
C     14.38384     10.62556      5.61067         0.744350      0.005594     -0.113118
C     14.38384     10.35284     15.36773         0.778478      0.012181      0.223617
C      5.61067      6.59456     10.35284        -0.076843     -0.889113      0.105223
C     15.36773      6.59456     10.62556         0.164039     -1.046213     -0.007138
C      5.61067     14.38384     10.62556        -0.222411      0.906340      0.006792
C     15.36773     14.38384     10.35284         0.096348      1.306885      0.006983
C      5.61067     10.35284      6.59456        -0.738883      0.028501     -2.027933
C     15.36773     10.62556      6.59456         0.679776     -0.012481     -2.025757
C      5.61067     10.62556     14.38384        -0.806502      0.002553      1.959960
C     15.36773     10.35284     14.38384         0.596469     -0.084049      1.554405
C     10.35284      6.59456      5.61067         0.052132     -1.472802     -0.774023
C     10.62556      6.59456     15.36773        -0.020877     -1.639281      0.981323
C     10.62556     14.38384      5.61067         0.022758      1.799722     -0.942235
C     10.35284     14.38384     15.36773        -0.055750      1.777209      1.008744
C      6.59456      5.61067     10.35284        -0.404936     -0.916534     -0.162466
C      6.59456     15.36773     10.62556        -1.422328      0.729560      0.076275
C     14.38384      5.61067     10.62556         1.330095     -0.716972      0.006599
C     14.38384     15.36773     10.35284         0.369840      1.057651     -0.005421
C     10.40319      3.19606      7.29314         0.006923      0.555098     -0.398886
C     10.35913      4.25547      6.23373         0.038101     -0.839481      0.543092
C      0.08601      7.29314      7.29314         0.015121     -0.481366     -0.428885
C      0.13007      6.23373      6.23373        -0.020987      0.898161      0.576379
C      0.08601      3.19606      3.19606        -0.016585      0.574706      0.358571
C      0.13007      4.25547      4.25547        -0.026560     -0.950803     -0.474046
C     10.40319      7.29314      3.19606         0.054639     -0.497208      0.401427
C     10.35913      6.23373      4.25547         0.070542      0.722277     -0.529889
C      7.29314     10.40319      3.19606        -0.312171      0.003184      0.594201
C      6.23373     10.35913      4.25547         0.208900     -0.047894     -0.300243
C      7.29314      0.08601      7.29314        -0.281324      0.004203     -0.429651
C      6.23373      0.13007      6.23373         0.107660     -0.024538      0.451486
C      3.19606      0.08601      3.19606         0.305313      0.005267      0.593413
C      4.25547      0.13007      4.25547        -0.192794      0.052530     -0.343929
C      3.19606     10.40319      7.29314         0.292205      0.007470     -0.558059
C      4.25547     10.35913      6.23373        -0.230993      0.046390      0.577531
C      3.19606      7.29314     10.40319         0.241214     -0.412997      0.000237
C      4.25547      6.23373     10.35913        -0.681667      0.330269      0.040258
C      7.29314      7.29314      0.08601        -0.498974     -0.248533      0.001655
C      6.23373      6.23373      0.13007         0.079978      0.299156     -0.027851
C      3.19606      3.19606      0.08601         0.442077      0.281387     -0.016211
C      4.25547      4.25547      0.13007        -0.056478     -0.192680     -0.022313
C      7.29314      3.19606     10.40319        -0.296187      0.537118     -0.018299
C      6.23373      4.25547     10.35913         0.782705     -0.429855      0.046486
O     10.43466      3.58206      8.50569        -0.012023      0.191687      0.392725
O     10.54374     17.39634      8.50569        -0.013489     -0.216805      0.411254
O     10.54374      3.58206     12.47271         0.071758      0.175706     -0.346661
O     10.43466     17.39634     12.47271        -0.114273     -0.208459     -0.355738
O      8.50569     10.43466      3.58206         0.420943     -0.024912      0.099363
O      8.50569     10.54374     17.39634         0.441421      0.053829     -0.130343
O     12.47271     10.54374      3.58206        -0.404821      0.001029      0.091852
O     12.47271     10.43466     17.39634        -0.431456     -0.053296     -0.121939
O      3.58206      8.50569     10.43466         0.156948      0.457945     -0.047003
O     17.39634      8.50569     10.54374        -0.090603      0.445366      0.032594
O      3.58206     12.47271     10.54374         0.075680     -0.435734      0.048547
O     17.39634     12.47271     10.43466        -0.219740     -0.566172     -0.001992
O      3.58206     10.43466      8.50569         0.207167     -0.006641      0.509496
O     17.39634     10.54374      8.50569        -0.160440     -0.001655      0.474746
O      3.58206     10.54374     12.47271         0.279100      0.052447     -0.525601
O     17.39634     10.43466     12.47271        -0.211051     -0.012849     -0.568800
O     10.43466      8.50569      3.58206         0.030263      0.541719      0.265333
O     10.54374      8.50569     17.39634         0.066911      0.545020     -0.252830
O     10.54374     12.47271      3.58206        -0.001746     -0.627312      0.278329
O     10.43466     12.47271     17.39634        -0.039027     -0.581455     -0.268245
O      8.50569      3.58206     10.43466         0.538123      0.141019     -0.034123
O      8.50569     17.39634     10.54374         0.571635     -0.164860      0.044126
O     12.47271      3.58206     10.54374        -0.559153      0.173706      0.000094
O     12.47271     17.39634     10.43466        -0.515176     -0.168134     -0.018313
O     11.90042     11.90042     19.56718        -0.295274     -0.297285      0.263038
O     19.56718     19.56718     19.56718         0.301526      0.286158      0.275921
O     19.56718     11.90042     11.90042         0.308263     -0.323154     -0.253849
O     11.90042     19.56718     11.90042        -0.303582      0.304668     -0.240784
O      9.45224      1.03696      9.45224        -0.047345      0.037729     -0.081794
O      1.03696      9.45224      9.45224         0.048287     -0.055466     -0.071955
O      1.03696      1.03696      1.03696         0.060382      0.037043      0.112377
O      9.45224      9.45224      1.03696        -0.044483     -0.067290      0.107543
Zr     10.48920      2.52580     10.48920        -0.127655     -0.079640      0.015071
Zr     10.48920     18.45260     10.48920         0.119031      0.138073     -0.068534
Zr     10.48920     10.48920      2.52580        -0.028391      0.053036     -0.267496
Zr     10.48920     10.48920     18.45260        -0.009140     -0.024046      0.185826
Zr      2.52580     10.48920     10.48920        -0.094979     -0.031200     -0.080229
Zr     18.45260     10.48920     10.48920         0.158694      0.070200     -0.081371
Pd     13.23156      8.29582      7.93342        -0.042396      0.045850     -0.141131
Pd      9.14119     14.45174     11.90294         0.018198     -0.086594     -0.136598
Pd     12.23764     11.16388     10.54647         0.075573     -0.104215     -0.068939
Pd     14.61180     10.66747     11.69601         0.123872     -0.086142      0.051953
Pd     11.10048      9.24610      6.42354         0.052441     -0.064109     -0.171898
Pd      6.85713      7.99601      8.49434         0.049968      0.070990      0.144720
Ir     10.06404     11.85597     11.84833        -0.005741     -0.019514      0.110576
Ir     13.12337      8.59781     10.56943        -0.080684      0.094652      0.031660
Ir     12.21470     11.13126      7.90028         0.080277     -0.016897     -0.145928
Ir      9.24484     14.22922      9.17780        -0.020150      0.028109      0.162784
Ir     10.85436      9.30267     11.81251         0.124062      0.051649      0.082660
Ir      8.74732      9.79686      7.87545        -0.215006      0.137951      0.134939
Ir     13.65420     12.87222      9.11022        -0.014122      0.034665     -0.025055
Ir     11.59017     13.60363      7.87712         0.218789      0.010661     -0.025179
Ir     14.32947     10.38910      9.20563         0.052763     -0.344470     -0.056362
Ir      9.45727      7.32184     10.59113        -0.008498     -0.024914     -0.053706
Ir      7.92666     12.38263      7.87187        -0.048410      0.010008     -0.001740
Ir      9.38946      7.41633      8.04123         0.025264      0.006826      0.047877
Ir     11.56188     13.67810     13.16072         0.068018     -0.067491     -0.136991
Ir     11.73465      6.93111     12.00851        -0.070853     -0.206110     -0.081668
Ir     10.02975     11.73883      9.20516         0.029964     -0.308663     -0.060730
Ir     13.17371      8.62602     13.17945         0.040234      0.060106      0.091719
Ir     10.93792      9.18075      9.16220         0.067149      0.080991     -0.038845
Ir     11.37346     13.72198     10.47099         0.283275      0.158724      0.019404
Ir     13.54047     13.12923     11.89097         0.013834     -0.114155     -0.086379
Ir     12.29027     11.20971     13.18822         0.107022     -0.001532      0.036912
Ir     10.03828     11.62855      6.59969        -0.051051     -0.178937     -0.041580
Ir     11.63504      6.74375      9.47515         0.133144     -0.264837     -0.253122
Ir      7.27065      7.99876     11.88578         0.151089      0.039091      0.066983
Ir      7.90505     12.45119     10.50294         0.025813      0.148044      0.006428
Ir     11.00328      9.31966     14.34990        -0.041291     -0.028032      0.071789
Ir      7.86789     12.28895     13.06177        -0.148915      0.045933      0.233537
Ir      6.57436     10.60112      9.23709         0.140094      0.060583      0.266122
Ir      8.68259      9.81054     13.18880         0.052346      0.079284     -0.082366
Ir      6.48923     10.47613     11.65022         0.095687      0.034604     -0.177286
Ir      9.22041      7.27378     13.18205         0.046933     -0.026352      0.065612
Ir     10.02316     11.62055     14.42778        -0.175178      0.062291     -0.071699
Ir      8.68002      9.80114     10.51802        -0.067545      0.163334     -0.037617
