152
# total energy = -1060.20826880 eVH     10.35389      5.87395      7.64558        -0.323150      0.099687      1.096033
H     10.62451     15.10445      7.64558         0.060471     -0.063634      0.901035
H     10.62451      5.87395     13.33282        -0.265356      0.071488     -0.780759
H     10.35389     15.10445     13.33282         0.087084     -0.302846     -0.819897
H      7.64558     10.35389      5.87395         0.893975     -0.196303      0.207479
H      7.64558     10.62451     15.10445         0.313225     -0.030635     -0.060268
H     13.33282     10.62451      5.87395        -0.888215      0.220120      0.223035
H     13.33282     10.35389     15.10445        -0.282556     -0.029018     -0.062577
H      5.87395      7.64558     10.35389         0.093328      0.424123     -0.016502
H     15.10445      7.64558     10.62451        -0.038034      0.436849     -0.034251
H      5.87395     13.33282     10.62451        -0.026618     -0.965881      0.075193
H     15.10445     13.33282     10.35389        -0.074333     -0.328737      0.001027
H      5.87395     10.35389      7.64558         0.320202      0.061576      0.368120
H     15.10445     10.62451      7.64558        -0.120767     -0.161883      0.658655
H      5.87395     10.62451     13.33282        -0.056550      0.454444     -0.595521
H     15.10445     10.35389     13.33282         0.237590     -0.653829     -0.859676
H     10.35389      7.64558      5.87395        -0.024972      0.498259      0.344651
H     10.62451      7.64558     15.10445         0.347161      0.805109      0.002256
H     10.62451     13.33282      5.87395         0.156008     -0.560428      0.195476
H     10.35389     13.33282     15.10445         0.034753     -0.286606     -0.166182
H      7.64558      5.87395     10.35389         0.372170      0.112921      0.065386
H      7.64558     15.10445     10.62451         0.381357     -0.127766      0.180170
H     13.33282      5.87395     10.62451        -0.304528      0.136059     -0.014109
H     13.33282     15.10445     10.35389        -0.664516     -0.099469      0.132769
H     12.45634     12.45634     19.01126         0.259718      0.271577     -0.226666
H     19.01126     19.01126     19.01126        -0.247030     -0.268993     -0.244431
H     19.01126     12.45634     12.45634        -0.249179      0.271914      0.237545
H     12.45634     19.01126     12.45634         0.290250     -0.235822      0.234354
C     10.35284      5.61067      6.59456         0.407610     -0.429912     -1.361384
C     10.62556     15.36773      6.59456        -0.164463      0.607204     -0.653938
C     10.62556      5.61067     14.38384         0.365278     -0.283911      0.767313
C     10.35284     15.36773     14.38384        -0.201675      0.216345      1.018823
C      6.59456     10.35284      5.61067        -1.396242      0.034712     -0.233577
C      6.59456     10.62556     15.36773        -0.667155      0.064672      0.364272
C     14.38384     10.62556      5.61067         1.295598     -0.185206     -0.629841
C     14.38384     10.35284     15.36773         0.322419     -0.129723      0.344239
C      5.61067      6.59456     10.35284        -0.271062     -0.680495     -0.028566
C     15.36773      6.59456     10.62556         0.400070     -0.862700      0.030069
C      5.61067     14.38384     10.62556        -0.151720      1.192299     -0.216922
C     15.36773     14.38384     10.35284         0.513994      0.705550     -0.035825
C      5.61067     10.35284      6.59456        -0.373365     -0.103712     -0.789149
C     15.36773     10.62556      6.59456         0.415783      0.106872     -0.690270
C      5.61067     10.62556     14.38384        -0.422192     -0.166802      1.213043
C     15.36773     10.35284     14.38384         0.245037      0.223018      1.433381
C     10.35284      6.59456      5.61067        -0.070934     -0.746081     -0.560239
C     10.62556      6.59456     15.36773        -0.150102     -0.990995      0.375708
C     10.62556     14.38384      5.61067        -0.489949      0.367648     -0.741700
C     10.35284     14.38384     15.36773        -0.175714      0.775435      0.517396
C      6.59456      5.61067     10.35284        -0.565610     -0.333063      0.000359
C      6.59456     15.36773     10.62556        -0.367153      0.456893      0.060663
C     14.38384      5.61067     10.62556         0.431108     -0.303837      0.005754
C     14.38384     15.36773     10.35284         1.135399      0.497359     -0.078417
C     10.40319      3.19606      7.29314        -0.006013      0.744250     -0.318139
C     10.35913      4.25547      6.23373         0.018089     -0.373966      0.279284
C      0.08601      7.29314      7.29314        -0.023827     -0.376990     -0.502476
C      0.13007      6.23373      6.23373        -0.052538      0.887034      0.094280
C      0.08601      3.19606      3.19606        -0.008027      0.694683      0.264877
C      0.13007      4.25547      4.25547         0.044280     -0.266379     -0.548137
C     10.40319      7.29314      3.19606        -0.065267     -1.102095      0.591161
C     10.35913      6.23373      4.25547        -0.047324      0.328772     -0.186590
C      7.29314     10.40319      3.19606        -1.107720     -0.057641      0.203054
C      6.23373     10.35913      4.25547         0.383344      0.100268     -0.514629
C      7.29314      0.08601      7.29314        -0.459557      0.028664     -0.458892
C      6.23373      0.13007      6.23373         0.173752      0.122698      0.116962
C      3.19606      0.08601      3.19606         0.693518      0.022463      0.165863
C      4.25547      0.13007      4.25547        -0.165868     -0.048592     -0.364321
C      3.19606     10.40319      7.29314         0.360742     -0.025797     -0.952096
C      4.25547     10.35913      6.23373        -0.133317     -0.057219      0.113103
C      3.19606      7.29314     10.40319         0.612197     -0.400235      0.003558
C      4.25547      6.23373     10.35913        -0.120460      0.179298      0.014049
C      7.29314      7.29314      0.08601        -0.429414     -0.303922     -0.014723
C      6.23373      6.23373      0.13007         0.157594      0.150518     -0.059056
C      3.19606      3.19606      0.08601         0.300361      0.494941     -0.021999
C      4.25547      4.25547      0.13007        -0.404215     -0.243274     -0.029093
C      7.29314      3.19606     10.40319        -0.284259      0.601531     -0.010285
C      6.23373      4.25547     10.35913         0.017227     -0.097466      0.013556
O     10.43466      3.58206      8.50569        -0.026231      0.081210      0.297631
O     10.54374     17.39634      8.50569         0.067321     -0.122247      0.594726
O     10.54374      3.58206     12.47271         0.029685      0.101668     -0.403014
O     10.43466     17.39634     12.47271         0.095621     -0.061353     -0.412726
O      8.50569     10.43466      3.58206         0.754339     -0.074668      0.021557
O      8.50569     10.54374     17.39634         0.514124      0.058594     -0.103700
O     12.47271     10.54374      3.58206        -0.648003      0.108892      0.211439
O     12.47271     10.43466     17.39634        -0.284540      0.005657      0.034727
O      3.58206      8.50569     10.43466         0.035630      0.444253     -0.059158
O     17.39634      8.50569     10.54374        -0.053671      0.451898      0.056225
O      3.58206     12.47271     10.54374         0.102315     -0.592367      0.004363
O     17.39634     12.47271     10.43466        -0.181920     -0.745360     -0.054695
O      3.58206     10.43466      8.50569         0.213336     -0.058679      0.813038
O     17.39634     10.54374      8.50569        -0.083654      0.076956      0.506443
O      3.58206     10.54374     12.47271        -0.001592     -0.005126     -0.256542
O     17.39634     10.43466     12.47271         0.044281     -0.010725     -0.225909
O     10.43466      8.50569      3.58206        -0.107643      0.514054     -0.104771
O     10.54374      8.50569     17.39634         0.055537      0.516304     -0.091195
O     10.54374     12.47271      3.58206         0.101919     -0.641977      0.128067
O     10.43466     12.47271     17.39634        -0.070440     -0.671635     -0.265090
O      8.50569      3.58206     10.43466         0.395296      0.021035     -0.045551
O      8.50569     17.39634     10.54374         0.643937     -0.152516      0.046304
O     12.47271      3.58206     10.54374        -0.524243      0.120991      0.026742
O     12.47271     17.39634     10.43466        -0.624393     -0.125027      0.038091
O     11.90042     11.90042     19.56718        -0.281045     -0.305386      0.222829
O     19.56718     19.56718     19.56718         0.308701      0.325066      0.296487
O     19.56718     11.90042     11.90042         0.283724     -0.326915     -0.236783
O     11.90042     19.56718     11.90042        -0.314601      0.229489     -0.199824
O      9.45224      1.03696      9.45224        -0.071746      0.082226     -0.085964
O      1.03696      9.45224      9.45224         0.095076     -0.103516     -0.064534
O      1.03696      1.03696      1.03696         0.079162      0.052097      0.098744
O      9.45224      9.45224      1.03696        -0.058111     -0.125946      0.135975
Zr     10.48920      2.52580     10.48920         0.048385     -0.087691      0.127652
Zr     10.48920     18.45260     10.48920        -0.182945      0.243990     -0.365736
Zr     10.48920     10.48920      2.52580         0.109889      0.368747     -0.347293
Zr     10.48920     10.48920     18.45260        -0.067225     -0.262951      0.243503
Zr      2.52580     10.48920     10.48920        -0.234741      0.133839      0.237812
Zr     18.45260     10.48920     10.48920         0.194736     -0.140652     -0.004149
Pd      9.35869     14.28443      9.32702        -0.008335      0.025136     -0.038055
Pd      8.58754     13.63036     13.04097         0.004297      0.002653      0.022618
Pd     12.01823     14.40875      8.74011         0.017476      0.002548      0.003055
Pd     12.77501     12.88341     10.66363        -0.018967     -0.054433      0.059289
Pd     12.11905      7.19855     12.67853         0.012413     -0.001695     -0.000533
Pd     11.16721     14.89345     11.45873        -0.007118      0.032503     -0.011993
Pd     10.05321     12.54226     11.10564        -0.038294      0.031736     -0.040229
Pd     13.47771     12.15303      7.97864        -0.009834      0.012772      0.010768
Pd     11.47887     11.53949      6.11472         0.024848      0.014189      0.018572
Pd      7.94516      8.39152      7.52666        -0.007572     -0.029354     -0.012462
Pd      8.72517     11.75546      6.84780        -0.008954     -0.001443      0.008530
Pd     10.32896      9.45241      8.14680        -0.014071     -0.011843      0.002167
Pd      8.50197     14.46268      6.80140        -0.004437     -0.000124     -0.011231
Pd     12.40068      9.00844      6.55886        -0.019444      0.024398      0.047724
Pd      9.71527      9.60797      5.57136         0.010203      0.013683     -0.006547
Pd      6.80046      9.44503     12.13145         0.034794      0.023387      0.011443
Pd     12.17453      6.74062      7.95051         0.021472      0.023896      0.025835
Pd      5.91785     10.48887      9.68417         0.015045      0.017933      0.002572
Pd      7.54711      7.24340     13.41044        -0.024804     -0.025464     -0.020671
Ir     11.74551      9.78715     13.06460        -0.012668     -0.031180     -0.012142
Ir     13.55659      9.05326     11.47125        -0.011343      0.013393     -0.017877
Ir      9.43400      8.85444     14.00550         0.009804      0.012529     -0.002908
Ir     10.50420     11.05484     14.85016        -0.013141     -0.038859      0.082492
Ir      7.26948     12.01847     11.33717         0.034354     -0.027041      0.019467
Ir     14.66304     10.89900     10.13040        -0.027369      0.008193      0.024317
Ir     12.16413     10.57058      9.68394         0.019591      0.030453     -0.055021
Ir      8.73239     10.98716     12.99143         0.010284     -0.018350     -0.041651
Ir     10.11101      9.91513     11.18026        -0.018882      0.030241      0.011531
Ir     13.76052     11.41357     12.46793        -0.091369      0.040245      0.021085
Ir     11.62696     12.37244     13.08152        -0.039781     -0.022203     -0.023762
Ir      8.50830     11.09524      9.34183        -0.057104      0.068550     -0.004627
Ir     11.58292      8.03147     10.14682         0.064193      0.002607     -0.001085
Ir      7.20949     13.02526      8.65133         0.039471     -0.046880      0.028415
Ir      9.54612      6.96338      9.24075        -0.026460     -0.022790     -0.026263
Ir      8.05355      8.76408     10.06126        -0.008659     -0.013686     -0.003503
Ir     10.71739     12.12734      8.50760         0.021162     -0.010056      0.002945
Ir      9.51269      7.56835     11.75640        -0.020764      0.020877      0.023481
Ir     13.66188      8.79521      8.83288        -0.006052     -0.004143      0.055685
