152
# total energy = -1022.82187966 eVH     10.35389      5.87395      7.64558         0.478077      0.027469      0.909346
H     10.62451     15.10445      7.64558        -0.037230      0.055326      0.766877
H     10.62451      5.87395     13.33282         0.142598      0.114700     -0.602956
H     10.35389     15.10445     13.33282        -0.254780     -0.079439     -0.555807
H      7.64558     10.35389      5.87395         0.330929     -0.037708      0.189795
H      7.64558     10.62451     15.10445         0.615079     -0.188983     -0.146662
H     13.33282     10.62451      5.87395        -0.864665     -0.331569      0.164116
H     13.33282     10.35389     15.10445        -0.445976     -0.073989     -0.072172
H      5.87395      7.64558     10.35389         0.125056      1.128909     -0.151445
H     15.10445      7.64558     10.62451        -0.170833      0.400864     -0.086606
H      5.87395     13.33282     10.62451         0.142500     -0.404181     -0.072160
H     15.10445     13.33282     10.35389        -0.077525     -0.967116     -0.201709
H      5.87395     10.35389      7.64558         0.125364      0.034365      0.477486
H     15.10445     10.62451      7.64558         0.126290     -0.217967      0.798560
H      5.87395     10.62451     13.33282         0.274975     -0.023794     -0.392486
H     15.10445     10.35389     13.33282        -0.158906      0.019056     -0.609936
H     10.35389      7.64558      5.87395         0.067951      0.847259      0.112129
H     10.62451      7.64558     15.10445         0.021815      0.580717     -0.140601
H     10.62451     13.33282      5.87395         0.073970     -0.600878      0.171405
H     10.35389     13.33282     15.10445        -0.249403     -0.893915     -0.111587
H      7.64558      5.87395     10.35389         0.528668      0.038328     -0.139461
H      7.64558     15.10445     10.62451         0.925065     -0.197409      0.312811
H     13.33282      5.87395     10.62451        -0.435757      0.187839     -0.059186
H     13.33282     15.10445     10.35389        -1.032009     -0.092785      0.287418
H     12.45634     12.45634     19.01126         0.267234      0.257012     -0.224770
H     19.01126     19.01126     19.01126        -0.247375     -0.235495     -0.262081
H     19.01126     12.45634     12.45634        -0.240946      0.270264      0.239496
H     12.45634     19.01126     12.45634         0.210220     -0.283645      0.253095
C     10.35284      5.61067      6.59456        -0.123826     -0.434684     -0.420558
C     10.62556     15.36773      6.59456         0.017557      0.352135     -1.149092
C     10.62556      5.61067     14.38384        -0.028033     -0.227253      0.722985
C     10.35284     15.36773     14.38384         0.184227      0.766350      0.142974
C      6.59456     10.35284      5.61067        -0.412851     -0.041622     -0.182158
C      6.59456     10.62556     15.36773        -0.774388      0.150809      0.347011
C     14.38384     10.62556      5.61067         0.635227      0.289166     -0.357408
C     14.38384     10.35284     15.36773         0.716001     -0.118688      0.418559
C      5.61067      6.59456     10.35284        -0.429509     -0.761012      0.271035
C     15.36773      6.59456     10.62556         0.200697     -0.463531      0.047976
C      5.61067     14.38384     10.62556        -0.264053      0.374614     -0.021875
C     15.36773     14.38384     10.35284         0.395168      0.167851      0.219036
C      5.61067     10.35284      6.59456        -0.313253     -0.014535     -0.895132
C     15.36773     10.62556      6.59456         0.576368     -0.155746     -1.233244
C      5.61067     10.62556     14.38384        -0.465905      0.008951      0.927234
C     15.36773     10.35284     14.38384         0.518469     -0.175634      1.249534
C     10.35284      6.59456      5.61067        -0.033335     -0.931372     -0.676813
C     10.62556      6.59456     15.36773         0.048954     -0.698690      0.301131
C     10.62556     14.38384      5.61067         0.040733      1.258132     -0.706210
C     10.35284     14.38384     15.36773         0.105531      0.613659      0.649317
C      6.59456      5.61067     10.35284        -0.224403     -0.902604      0.134559
C      6.59456     15.36773     10.62556        -1.739539      0.497866      0.034218
C     14.38384      5.61067     10.62556         0.580026     -0.227318     -0.008643
C     14.38384     15.36773     10.35284         0.226062      0.546919     -0.232033
C     10.40319      3.19606      7.29314         0.015148      0.901050     -0.249048
C     10.35913      4.25547      6.23373        -0.051801     -0.363418      0.613297
C      0.08601      7.29314      7.29314        -0.008510     -0.235577     -0.463885
C      0.13007      6.23373      6.23373         0.000583      0.125643      0.209316
C      0.08601      3.19606      3.19606        -0.016815      0.635107      0.181420
C      0.13007      4.25547      4.25547        -0.091197     -0.199546     -0.165752
C     10.40319      7.29314      3.19606        -0.002454     -0.683753      0.527529
C     10.35913      6.23373      4.25547        -0.007908      0.511928     -0.390375
C      7.29314     10.40319      3.19606        -0.340759      0.022456      0.860638
C      6.23373     10.35913      4.25547         0.208644      0.010153     -0.144993
C      7.29314      0.08601      7.29314        -0.305770     -0.046649     -0.270778
C      6.23373      0.13007      6.23373         0.266357     -0.057791      0.289045
C      3.19606      0.08601      3.19606         0.420217     -0.051944      1.321477
C      4.25547      0.13007      4.25547        -0.118799     -0.025860     -0.462100
C      3.19606     10.40319      7.29314         0.697830      0.014948     -0.265307
C      4.25547     10.35913      6.23373        -0.131574      0.028174      0.101532
C      3.19606      7.29314     10.40319         0.604906     -1.267373      0.027025
C      4.25547      6.23373     10.35913        -0.735417      0.824182      0.041653
C      7.29314      7.29314      0.08601        -0.648645     -0.169158     -0.023050
C      6.23373      6.23373      0.13007         0.168104      0.275901     -0.009962
C      3.19606      3.19606      0.08601         0.240020      0.250074     -0.020077
C      4.25547      4.25547      0.13007        -0.053793     -0.037264      0.013916
C      7.29314      3.19606     10.40319        -0.372553      0.788576      0.017284
C      6.23373      4.25547     10.35913         0.866615     -0.168599      0.012045
O     10.43466      3.58206      8.50569        -0.049463      0.034439      0.319543
O     10.54374     17.39634      8.50569        -0.022612     -0.182300      0.600086
O     10.54374      3.58206     12.47271         0.055321      0.064713     -0.326671
O     10.43466     17.39634     12.47271        -0.023203     -0.126820     -0.582680
O      8.50569     10.43466      3.58206         0.381906     -0.024659     -0.013445
O      8.50569     10.54374     17.39634         0.468921      0.053718     -0.143397
O     12.47271     10.54374      3.58206        -0.271208      0.051887     -0.083050
O     12.47271     10.43466     17.39634        -0.848296      0.020503     -0.222525
O      3.58206      8.50569     10.43466         0.039231      0.913711      0.042109
O     17.39634      8.50569     10.54374        -0.041413      0.340741      0.077879
O      3.58206     12.47271     10.54374         0.065796     -0.420407      0.063829
O     17.39634     12.47271     10.43466        -0.169697     -0.774746      0.017753
O      3.58206     10.43466      8.50569        -0.053632     -0.065087      0.231417
O     17.39634     10.54374      8.50569        -0.136993      0.043030      0.458740
O      3.58206     10.54374     12.47271        -0.026434     -0.052160     -0.897162
O     17.39634     10.43466     12.47271        -0.197748      0.043619     -0.767630
O     10.43466      8.50569      3.58206         0.042696      0.676230      0.190197
O     10.54374      8.50569     17.39634         0.052848      0.431721     -0.081017
O     10.54374     12.47271      3.58206        -0.007179     -0.722639      0.225917
O     10.43466     12.47271     17.39634         0.047028     -0.844094     -0.273712
O      8.50569      3.58206     10.43466         0.493417      0.077263     -0.039077
O      8.50569     17.39634     10.54374         0.648026     -0.248334     -0.058970
O     12.47271      3.58206     10.54374        -0.485961      0.163811      0.039910
O     12.47271     17.39634     10.43466        -0.531328     -0.038690     -0.030935
O     11.90042     11.90042     19.56718        -0.304715     -0.312507      0.265350
O     19.56718     19.56718     19.56718         0.287069      0.272694      0.320851
O     19.56718     11.90042     11.90042         0.279843     -0.330899     -0.245553
O     11.90042     19.56718     11.90042        -0.226127      0.291285     -0.240380
O      9.45224      1.03696      9.45224        -0.074487      0.047958     -0.066751
O      1.03696      9.45224      9.45224         0.058153     -0.142171     -0.055369
O      1.03696      1.03696      1.03696         0.046758      0.030604      0.185731
O      9.45224      9.45224      1.03696        -0.040021     -0.091028      0.122207
Zr     10.48920      2.52580     10.48920        -0.007331     -0.072227     -0.022104
Zr     10.48920     18.45260     10.48920         0.052387      0.301442     -0.075704
Zr     10.48920     10.48920      2.52580        -0.106215      0.016755     -0.365943
Zr     10.48920     10.48920     18.45260        -0.130274     -0.156676      0.322413
Zr      2.52580     10.48920     10.48920        -0.346290      0.319403     -0.476527
Zr     18.45260     10.48920     10.48920         0.243717      0.036802     -0.261853
Pd      9.04921     10.26658     13.32533        -0.016106     -0.014476      0.006195
Pd     10.58496      9.73234     11.00359        -0.001070     -0.010709     -0.046761
Pd     13.76368      8.53657     12.69322         0.006339      0.000837     -0.003808
Pd     11.00160     11.08195     15.01686         0.001770     -0.014408     -0.002840
Pd     12.83792     11.17077     13.00183         0.024136      0.004743      0.004554
Pd     14.97834     10.92944     11.35007         0.017389      0.009140     -0.005181
Pd      6.64944      7.42495     12.34172         0.002360      0.018724      0.001253
Pd      9.22711      7.25560     10.13696         0.007507      0.007270     -0.031636
Pd      9.25981      7.60964     12.80766         0.010861     -0.012023     -0.016975
Pd     11.69612      7.28610     11.47251         0.006755      0.002441     -0.009023
Pd     11.38897      7.99625      8.87138         0.028767     -0.004101     -0.008999
Pd      7.25919     11.83510     11.96241         0.001651     -0.007215     -0.017350
Pd      8.87834     14.66759      9.32261         0.027771      0.010240      0.011010
Pd      8.41947     12.65808     14.32273        -0.003913     -0.007860     -0.000511
Pd     13.47782     14.07898      8.59162         0.069734      0.028798     -0.044560
Pd     10.94173     13.31788      8.49436         0.063962      0.028208      0.031056
Pd     14.09348     11.50988      8.93334         0.006539      0.027463     -0.004192
Pd      8.61319     14.11173     12.10335         0.010245     -0.007725     -0.003264
Pd     12.24509     13.72837     14.02416        -0.001463     -0.012468      0.005747
Pd     11.13468     14.44560     11.12263         0.025480     -0.016434      0.035380
Pd     14.06479     13.54115     12.17705        -0.013545      0.010724     -0.007459
Pd     12.30929     12.17314     10.66301        -0.006337     -0.027502      0.010418
Pd     12.66617     12.31432      6.72911         0.012696      0.033088     -0.016889
Pd     13.64726      8.93750      7.92641         0.036518      0.005162      0.011563
Pd      6.85941      8.45795      8.85373         0.013025      0.017311     -0.001736
Pd      5.52602      9.92146     11.29094         0.012476      0.027234     -0.050193
Pd      9.13645      9.75677      8.32369         0.026134     -0.014936     -0.011231
Pd      8.83007      7.24760      7.47596        -0.009946      0.000872     -0.031604
Pd      9.51351     12.08269     10.42228         0.023563      0.000605      0.012503
Pd     11.53077     10.70410      8.58945         0.027347      0.008894     -0.032737
Pd     11.22404      9.24474      6.45018         0.043561     -0.024338     -0.010602
Pd      9.89624     11.56490      6.39350         0.025758     -0.028670     -0.019665
Ir     11.35256      9.09150     13.37938        -0.001627      0.016756     -0.035161
Ir     13.06930      9.47779     10.40389         0.005440      0.016616     -0.005714
Ir     10.53232     12.37080     12.70205        -0.005183     -0.022549     -0.005297
Ir      7.11781     10.97416      9.51854         0.033729     -0.012068      0.002652
Ir      8.36983     12.44664      8.18864         0.064759      0.025790     -0.033763
Ir      8.06360      9.29335     11.11839        -0.018316      0.021424     -0.014819
