20
# total energy = -160.58363222 eVC      8.34213      3.99388      7.50000         0.005902      0.040009     -0.000000
C      1.42414      0.00002      7.50000        -0.033065     -0.003309      0.000000
C      8.34230     -3.99448      7.50000        -0.004391     -0.027715      0.000000
C      0.71199      1.23350      7.50000        -0.005902     -0.040009      0.000000
C      7.62997      5.22736      7.50000         0.033065      0.003309     -0.000000
C      0.71181      9.22186      7.50000         0.004391      0.027715      0.000000
C      7.63672     -2.77277      7.50000         0.245626     -0.423201      0.000000
C      7.63684      2.77259      7.50000         0.214614      0.368924     -0.000000
C      2.83495     -0.00012      7.50000        -0.539668      0.000267      0.000000
C      1.41739      8.00016      7.50000        -0.245626      0.423201      0.000000
C      1.41727      2.45479      7.50000        -0.214614     -0.368924     -0.000000
C      6.21917      5.22751      7.50000         0.539668     -0.000267      0.000000
N      7.05085     -1.75787      7.50000        -0.213467      0.368565      0.000000
N      7.05081      1.75726      7.50000        -0.191182     -0.329693      0.000000
N      4.00637     -0.00014      7.50000         0.474765     -0.000079      0.000000
N      2.00327      6.98525      7.50000         0.213467     -0.368565      0.000000
N      2.00330      3.47012      7.50000         0.191182      0.329693      0.000000
N      5.04774      5.22752      7.50000        -0.474765      0.000079      0.000000
Pd      6.03611     -0.00024      7.50000         0.000684      0.001051      0.000000
Pd      3.01801      5.22762      7.50000        -0.000684     -0.001051      0.000000
