152
# total energy = -1005.49269352 eVH     10.35389      5.87395      7.64558         0.161142      0.102650      0.573912
H     10.62451     15.10445      7.64558        -0.121796     -0.146547      0.501695
H     10.62451      5.87395     13.33282         0.567111      0.081209     -0.855061
H     10.35389     15.10445     13.33282         0.021936     -0.156032     -0.396739
H      7.64558     10.35389      5.87395         0.356502      0.040031      0.164442
H      7.64558     10.62451     15.10445         0.899773      0.547268      0.011263
H     13.33282     10.62451      5.87395        -0.434849      0.352163      0.108777
H     13.33282     10.35389     15.10445        -0.849489     -0.072639      0.004993
H      5.87395      7.64558     10.35389         0.321845      1.221344      0.029740
H     15.10445      7.64558     10.62451        -0.108040      0.490371      0.296422
H      5.87395     13.33282     10.62451         0.181628     -0.607316      0.054855
H     15.10445     13.33282     10.35389        -0.081590     -0.950571     -0.201116
H      5.87395     10.35389      7.64558         0.206311      0.053139      0.440319
H     15.10445     10.62451      7.64558        -0.142068      0.521121      0.767965
H      5.87395     10.62451     13.33282         0.034147      0.443151     -1.068602
H     15.10445     10.35389     13.33282        -0.075261     -0.031918     -0.637373
H     10.35389      7.64558      5.87395         0.329603      1.178995      0.069104
H     10.62451      7.64558     15.10445         0.669270      0.686604     -0.221436
H     10.62451     13.33282      5.87395        -0.397361     -0.813961      0.272995
H     10.35389     13.33282     15.10445        -0.104698     -0.471791     -0.291139
H      7.64558      5.87395     10.35389         0.814392      0.057554     -0.205769
H      7.64558     15.10445     10.62451         0.801801     -0.178572      0.034659
H     13.33282      5.87395     10.62451        -0.709178      0.165100      0.508843
H     13.33282     15.10445     10.35389        -0.375544     -0.119887     -0.090305
H     12.45634     12.45634     19.01126         0.246463      0.272079     -0.232768
H     19.01126     19.01126     19.01126        -0.275973     -0.250394     -0.237923
H     19.01126     12.45634     12.45634        -0.278515      0.262476      0.218859
H     12.45634     19.01126     12.45634         0.236538     -0.262479      0.273612
C     10.35284      5.61067      6.59456        -0.317425     -0.762361     -0.122107
C     10.62556     15.36773      6.59456         0.056631      0.319532     -0.270493
C     10.62556      5.61067     14.38384        -0.149379     -0.511013      0.339699
C     10.35284     15.36773     14.38384         0.019400      0.183355      0.344580
C      6.59456     10.35284      5.61067        -0.400198      0.011938     -0.248950
C      6.59456     10.62556     15.36773        -0.680548      0.099082      0.648718
C     14.38384     10.62556      5.61067        -0.268694     -0.462396     -0.685604
C     14.38384     10.35284     15.36773         1.050623     -0.088681      0.177836
C      5.61067      6.59456     10.35284        -0.744172     -0.271099     -0.331825
C     15.36773      6.59456     10.62556         0.530060      0.018083     -0.366153
C      5.61067     14.38384     10.62556        -0.215812      0.643674     -0.019991
C     15.36773     14.38384     10.35284         0.269272      0.956514      0.025213
C      5.61067     10.35284      6.59456        -0.302023      0.009895     -0.781843
C     15.36773     10.62556      6.59456         0.498278     -0.263582      0.220727
C      5.61067     10.62556     14.38384        -0.698120     -0.000598      0.600111
C     15.36773     10.35284     14.38384         0.427542     -0.033151      0.990819
C     10.35284      6.59456      5.61067        -0.126351     -0.778265     -0.569825
C     10.62556      6.59456     15.36773        -0.055694     -0.477915      0.572820
C     10.62556     14.38384      5.61067         0.196875      1.175117     -0.343107
C     10.35284     14.38384     15.36773        -0.002946      0.843292      0.383163
C      6.59456      5.61067     10.35284         0.162056     -1.069330      0.284588
C      6.59456     15.36773     10.62556        -0.975282      0.228711      0.078014
C     14.38384      5.61067     10.62556         0.295425     -0.563894     -0.366947
C     14.38384     15.36773     10.35284         0.141044      0.357293     -0.078495
C     10.40319      3.19606      7.29314         0.003103      0.857556     -0.447677
C     10.35913      4.25547      6.23373         0.062700     -0.543718      0.112255
C      0.08601      7.29314      7.29314        -0.040560     -0.854144     -0.233136
C      0.13007      6.23373      6.23373        -0.046759      0.217540      0.440506
C      0.08601      3.19606      3.19606         0.021565      1.416677      0.264948
C      0.13007      4.25547      4.25547         0.010494     -0.597031     -0.282904
C     10.40319      7.29314      3.19606         0.001533     -0.334347      0.264940
C     10.35913      6.23373      4.25547         0.031056      0.022421     -0.732954
C      7.29314     10.40319      3.19606        -0.264173      0.017780      0.529288
C      6.23373     10.35913      4.25547         0.140495      0.042232     -0.058457
C      7.29314      0.08601      7.29314        -0.865037     -0.076379     -0.308039
C      6.23373      0.13007      6.23373         0.821883     -0.179613      0.415963
C      3.19606      0.08601      3.19606         0.911348     -0.027407      0.569096
C      4.25547      0.13007      4.25547        -0.535832     -0.096930     -0.658990
C      3.19606     10.40319      7.29314         0.549872     -0.010345     -0.763983
C      4.25547     10.35913      6.23373        -0.262488      0.064571      0.216566
C      3.19606      7.29314     10.40319         0.302120     -1.319703      0.023858
C      4.25547      6.23373     10.35913        -1.065557      0.024212      0.117268
C      7.29314      7.29314      0.08601        -0.441712     -0.428487     -0.013355
C      6.23373      6.23373      0.13007         0.552375      0.235839      0.018236
C      3.19606      3.19606      0.08601         0.450317      0.344572     -0.033486
C      4.25547      4.25547      0.13007        -0.131814     -0.573572     -0.046575
C      7.29314      3.19606     10.40319        -0.394685      0.453646      0.055364
C      6.23373      4.25547     10.35913         0.263356     -0.746086      0.138826
O     10.43466      3.58206      8.50569        -0.014232      0.051914      0.446521
O     10.54374     17.39634      8.50569         0.066000     -0.071154      0.332536
O     10.54374      3.58206     12.47271         0.025542     -0.120240     -0.141247
O     10.43466     17.39634     12.47271        -0.027474     -0.166364     -0.519400
O      8.50569     10.43466      3.58206         0.281708     -0.021816      0.012769
O      8.50569     10.54374     17.39634         0.802100     -0.048096     -0.177053
O     12.47271     10.54374      3.58206        -0.798968      0.097313      0.085789
O     12.47271     10.43466     17.39634        -0.479213      0.033997     -0.077177
O      3.58206      8.50569     10.43466         0.152441      1.090634     -0.035905
O     17.39634      8.50569     10.54374        -0.158808      0.589349      0.067040
O      3.58206     12.47271     10.54374         0.102997     -0.436386      0.035076
O     17.39634     12.47271     10.43466        -0.144509     -0.561672     -0.031475
O      3.58206     10.43466      8.50569         0.063564     -0.090175      0.605342
O     17.39634     10.54374      8.50569        -0.027195      0.090051      0.417330
O      3.58206     10.54374     12.47271         0.018272      0.036153     -0.492596
O     17.39634     10.43466     12.47271        -0.227716     -0.046538     -0.644010
O     10.43466      8.50569      3.58206        -0.038601      0.452216      0.139172
O     10.54374      8.50569     17.39634        -0.065430      0.716388     -0.223180
O     10.54374     12.47271      3.58206         0.033839     -0.992639      0.104903
O     10.43466     12.47271     17.39634         0.060220     -0.803036     -0.213849
O      8.50569      3.58206     10.43466         0.583422      0.151405     -0.053501
O      8.50569     17.39634     10.54374         0.532648     -0.179721     -0.001672
O     12.47271      3.58206     10.54374        -0.603998      0.193624      0.003092
O     12.47271     17.39634     10.43466        -0.254775      0.074630     -0.044258
O     11.90042     11.90042     19.56718        -0.264470     -0.310701      0.227746
O     19.56718     19.56718     19.56718         0.326225      0.293065      0.243839
O     19.56718     11.90042     11.90042         0.318224     -0.261031     -0.235549
O     11.90042     19.56718     11.90042        -0.239592      0.300750     -0.331710
O      9.45224      1.03696      9.45224         0.002758      0.066403     -0.134130
O      1.03696      9.45224      9.45224         0.083039     -0.075049     -0.172649
O      1.03696      1.03696      1.03696         0.110370      0.167769      0.027617
O      9.45224      9.45224      1.03696        -0.093540     -0.113549      0.010146
Zr     10.48920      2.52580     10.48920        -0.093352     -0.215825     -0.021949
Zr     10.48920     18.45260     10.48920        -0.097440      0.185989      0.190882
Zr     10.48920     10.48920      2.52580        -0.095980     -0.444054     -0.203689
Zr     10.48920     10.48920     18.45260        -0.144808      0.040680      0.439832
Zr      2.52580     10.48920     10.48920        -0.334668      0.292239      0.303721
Zr     18.45260     10.48920     10.48920         0.159526      0.017751     -0.098805
Pd     13.62067      8.95777      9.11248         0.006266     -0.002085      0.014689
Pd      5.69966      9.71548      9.97605         0.021298      0.012616      0.017616
Pd      6.86107     11.36306     11.71698        -0.006986      0.064128     -0.009123
Pd     12.18048     13.12575      7.34310         0.004344     -0.012979     -0.013443
Pd     12.09306      7.89481      7.16362        -0.004898     -0.022443      0.026966
Pd      8.29150      7.05888      6.54625        -0.001467     -0.003034      0.021019
Pd     10.86524     11.29744      5.58202         0.024486     -0.011159      0.000494
Pd     14.64380      8.53244      6.67984        -0.020034     -0.000708      0.026686
Pd      9.63627     11.81004      8.00963         0.002837     -0.016972     -0.013264
Pd      6.68827      6.78385     12.30572         0.029668      0.000435     -0.001052
Pd      6.39419      7.55064      8.27939        -0.017061      0.038063     -0.006728
Pd      6.99960      8.87574     13.87026        -0.029864     -0.041637      0.029562
Pd     11.65240      6.54668      9.45457        -0.013628      0.012306      0.030684
Pd      9.74316      9.29544      6.89409         0.006057      0.005010      0.006687
Pd      9.03041     13.97033      9.42130        -0.007721     -0.001921      0.001609
Pd     10.04947      7.05485     11.51246        -0.070199      0.042724      0.028010
Pd     10.53213      8.96331      9.54331        -0.008814      0.007997     -0.000337
Pd      9.36265     11.25947     10.60881        -0.004226      0.007264     -0.002220
Pd      8.89932      6.99082      9.11304        -0.009003     -0.000596      0.015678
Pd      8.79276      6.94559     13.84270        -0.024333     -0.053511      0.044567
Pd      8.06324      8.89103     11.38853        -0.044710      0.055571      0.051887
Pd     11.94738     10.53187      7.83745         0.013613     -0.009118     -0.004882
Pd      7.14289     12.05466      9.15984        -0.012351      0.009391     -0.007445
Pd      8.02000      9.59088      8.79047         0.014899      0.000273      0.018444
Pd     14.19017      6.50552      8.44247        -0.024940     -0.005409      0.005419
Pd     12.55437      8.25472     11.46139        -0.010360     -0.001608     -0.002562
Pd      8.83489     11.33143     13.42990        -0.021574      0.029045      0.010761
Pd     13.89277     11.93383      9.04272        -0.000749     -0.014568     -0.004507
Pd     12.86215     10.57026     13.08969         0.002897     -0.004519      0.000230
Pd     14.70855     10.30206     11.13158         0.017992      0.014558      0.011779
Pd     12.04490     10.73272     10.59547         0.015188      0.003243     -0.006559
Pd     11.45297     13.15534      9.87596        -0.005551     -0.001986     -0.018669
Pd     13.57166     12.80943     11.67572        -0.018716      0.010730     -0.000343
Pd     11.03495     12.54081     12.44564         0.001887     -0.009215     -0.004817
Pd     11.10621     11.36755     14.88125        -0.017508     -0.014650      0.000964
Pd     10.47215      9.48539     12.56805        -0.004138      0.031512     -0.011953
Pd      9.44728      9.31539     15.03180        -0.011776     -0.020996     -0.057572
Pd      8.60951     13.50615     11.99280         0.032787      0.033346     -0.000557
