152
# total energy = -1061.44939880 eVH     10.35389      5.87395      7.64558        -0.173663      0.120835      1.020380
H     10.62451     15.10445      7.64558         0.429100     -0.108841      0.759190
H     10.62451      5.87395     13.33282        -0.104833      0.095773     -0.466696
H     10.35389     15.10445     13.33282         0.094657     -0.182867     -0.394827
H      7.64558     10.35389      5.87395         0.930747      0.197427      0.206286
H      7.64558     10.62451     15.10445         0.208381     -0.021837     -0.070863
H     13.33282     10.62451      5.87395        -0.618582     -0.042446      0.162840
H     13.33282     10.35389     15.10445        -0.326571     -0.064388     -0.067170
H      5.87395      7.64558     10.35389         0.130549      0.360137     -0.074686
H     15.10445      7.64558     10.62451        -0.136561      0.476307      0.196983
H      5.87395     13.33282     10.62451         0.113719     -0.618421      0.083837
H     15.10445     13.33282     10.35389        -0.232486     -0.432650      0.091092
H      5.87395     10.35389      7.64558         0.156125      0.261617      0.375779
H     15.10445     10.62451      7.64558        -0.134059     -0.398199      0.761413
H      5.87395     10.62451     13.33282         0.036103      0.142192     -0.702616
H     15.10445     10.35389     13.33282         0.098053     -0.272881     -0.761768
H     10.35389      7.64558      5.87395        -0.133711      0.439049      0.224694
H     10.62451      7.64558     15.10445         0.367172      0.614688     -0.118146
H     10.62451     13.33282      5.87395         0.125082     -0.574138      0.105004
H     10.35389     13.33282     15.10445         0.258172     -0.729599     -0.080085
H      7.64558      5.87395     10.35389         0.478053      0.146895     -0.155546
H      7.64558     15.10445     10.62451         0.405047     -0.155637      0.402092
H     13.33282      5.87395     10.62451        -0.383036      0.158006     -0.072168
H     13.33282     15.10445     10.35389        -0.576261     -0.289884      0.117534
H     12.45634     12.45634     19.01126         0.232189      0.264916     -0.247460
H     19.01126     19.01126     19.01126        -0.260550     -0.259998     -0.229854
H     19.01126     12.45634     12.45634        -0.233634      0.274235      0.237794
H     12.45634     19.01126     12.45634         0.277098     -0.211426      0.254559
C     10.35284      5.61067      6.59456         0.282989     -0.296066     -0.803429
C     10.62556     15.36773      6.59456        -0.210316      0.636445     -0.228772
C     10.62556      5.61067     14.38384         0.256470     -0.265653      0.496246
C     10.35284     15.36773     14.38384        -0.112334      0.273058      0.250502
C      6.59456     10.35284      5.61067        -0.880351     -0.106015     -0.239542
C      6.59456     10.62556     15.36773        -0.511197      0.043388      0.344233
C     14.38384     10.62556      5.61067         0.804872     -0.043325     -0.645423
C     14.38384     10.35284     15.36773         0.265963     -0.081637      0.365739
C      5.61067      6.59456     10.35284        -0.395374     -0.354561      0.074301
C     15.36773      6.59456     10.62556         0.297968     -0.532274     -0.084978
C      5.61067     14.38384     10.62556        -0.148315      0.530082     -0.355779
C     15.36773     14.38384     10.35284         0.415383      0.835726     -0.099916
C      5.61067     10.35284      6.59456        -0.312975     -0.149112     -0.101246
C     15.36773     10.62556      6.59456         0.226515      0.302247     -0.593095
C      5.61067     10.62556     14.38384        -0.336472     -0.038357      1.198330
C     15.36773     10.35284     14.38384         0.285191     -0.050866      1.024490
C     10.35284      6.59456      5.61067         0.084172     -0.263562     -0.503151
C     10.62556      6.59456     15.36773         0.011314     -0.783026      0.162647
C     10.62556     14.38384      5.61067        -0.385961      0.129769     -0.879648
C     10.35284     14.38384     15.36773        -0.260715      0.862617      0.264349
C      6.59456      5.61067     10.35284        -0.346276     -0.283577      0.255302
C      6.59456     15.36773     10.62556        -0.356958      0.545944     -0.027588
C     14.38384      5.61067     10.62556         0.461927     -0.356770      0.061752
C     14.38384     15.36773     10.35284         0.959396      0.266875     -0.059021
C     10.40319      3.19606      7.29314         0.005995      0.557383     -0.316846
C     10.35913      4.25547      6.23373        -0.013048     -0.520738      0.432440
C      0.08601      7.29314      7.29314        -0.013631     -0.865252     -0.553991
C      0.13007      6.23373      6.23373        -0.173482      0.867701      0.139960
C      0.08601      3.19606      3.19606        -0.012995      0.395651      0.381566
C      0.13007      4.25547      4.25547         0.058228     -0.200252     -0.598910
C     10.40319      7.29314      3.19606        -0.049453     -1.081672      0.749655
C     10.35913      6.23373      4.25547         0.011121      0.343583     -0.212988
C      7.29314     10.40319      3.19606        -1.248878     -0.082613      0.325847
C      6.23373     10.35913      4.25547         0.276196      0.022409     -0.707157
C      7.29314      0.08601      7.29314        -0.836974     -0.000958     -0.413820
C      6.23373      0.13007      6.23373         0.332378      0.054740      0.129017
C      3.19606      0.08601      3.19606         0.327080      0.000505      0.429665
C      4.25547      0.13007      4.25547        -0.288211     -0.034820     -0.181654
C      3.19606     10.40319      7.29314         0.502515     -0.042834     -1.016640
C      4.25547     10.35913      6.23373        -0.313278     -0.071730      0.101484
C      3.19606      7.29314     10.40319         1.064635     -0.456972      0.006250
C      4.25547      6.23373     10.35913        -0.191309      0.165064     -0.002607
C      7.29314      7.29314      0.08601        -0.474272     -0.279457     -0.007272
C      6.23373      6.23373      0.13007         0.194753      0.129595     -0.146272
C      3.19606      3.19606      0.08601         0.348784      0.844500     -0.008139
C      4.25547      4.25547      0.13007        -0.525253     -0.192069      0.044458
C      7.29314      3.19606     10.40319        -0.196341      0.506619      0.025272
C      6.23373      4.25547     10.35913        -0.008829     -0.361068      0.044783
O     10.43466      3.58206      8.50569        -0.022021      0.133079      0.384660
O     10.54374     17.39634      8.50569         0.043092      0.054362      0.360966
O     10.54374      3.58206     12.47271         0.042154      0.195524     -0.573033
O     10.43466     17.39634     12.47271         0.027273     -0.003764     -0.437245
O      8.50569     10.43466      3.58206         0.758091     -0.064520      0.011193
O      8.50569     10.54374     17.39634         0.854870      0.023739     -0.160079
O     12.47271     10.54374      3.58206        -0.348279      0.038358      0.077007
O     12.47271     10.43466     17.39634        -0.384596     -0.035132      0.036241
O      3.58206      8.50569     10.43466        -0.097784      0.276870     -0.077109
O     17.39634      8.50569     10.54374        -0.110188      0.444423      0.040683
O      3.58206     12.47271     10.54374         0.145682     -0.803953     -0.017234
O     17.39634     12.47271     10.43466        -0.240737     -0.637266     -0.014271
O      3.58206     10.43466      8.50569         0.126416     -0.034917      0.785350
O     17.39634     10.54374      8.50569         0.005823      0.035007      0.336539
O      3.58206     10.54374     12.47271         0.067895      0.018268     -0.462466
O     17.39634     10.43466     12.47271         0.034513      0.013059     -0.253590
O     10.43466      8.50569      3.58206        -0.059749      0.596385     -0.063897
O     10.54374      8.50569     17.39634         0.026590      0.879211     -0.203780
O     10.54374     12.47271      3.58206         0.066986     -0.370234      0.081116
O     10.43466     12.47271     17.39634        -0.055746     -0.643977     -0.198277
O      8.50569      3.58206     10.43466         0.344983      0.079853     -0.052491
O      8.50569     17.39634     10.54374         0.546871     -0.157989     -0.009312
O     12.47271      3.58206     10.54374        -0.367853      0.056378      0.034211
O     12.47271     17.39634     10.43466        -0.831411     -0.147851      0.064231
O     11.90042     11.90042     19.56718        -0.245207     -0.282432      0.237314
O     19.56718     19.56718     19.56718         0.298444      0.295003      0.251040
O     19.56718     11.90042     11.90042         0.229984     -0.304346     -0.278953
O     11.90042     19.56718     11.90042        -0.274957      0.179993     -0.272951
O      9.45224      1.03696      9.45224        -0.111665      0.091774     -0.083022
O      1.03696      9.45224      9.45224         0.129055     -0.148086     -0.167893
O      1.03696      1.03696      1.03696         0.137230      0.204608     -0.001512
O      9.45224      9.45224      1.03696        -0.209099     -0.169030      0.033254
Zr     10.48920      2.52580     10.48920        -0.001818     -0.232648      0.151924
Zr     10.48920     18.45260     10.48920        -0.304253      0.306126     -0.160419
Zr     10.48920     10.48920      2.52580         0.339935      0.412932     -0.228384
Zr     10.48920     10.48920     18.45260         0.001476      0.012875      0.469565
Zr      2.52580     10.48920     10.48920        -0.554485      0.031580      0.332862
Zr     18.45260     10.48920     10.48920         0.274880     -0.147567      0.005417
Pd      9.17600     14.60989      9.21418        -0.004361      0.032591     -0.015248
Pd      8.47406     13.22421     13.82810        -0.015504      0.007154      0.001635
Pd     12.16188     14.09818      8.65088         0.008306      0.028919      0.003517
Pd     12.26017     12.75083     10.90995         0.005968      0.010353     -0.024625
Pd     11.79836      7.08909     11.92601        -0.001282      0.000780     -0.017790
Pd     11.15918     15.30111     10.89223         0.003938      0.028975      0.004852
Pd      9.62382     13.15900     11.41964        -0.005250     -0.020113     -0.000304
Pd     14.05310     12.38642      7.96918        -0.030880     -0.012792      0.031022
Pd     11.59230     11.76583      6.76205        -0.015132      0.007705     -0.004243
Pd      7.48585      8.55338      7.17806        -0.021833     -0.019262      0.008626
Pd      8.63923     12.03834      6.91260        -0.007951      0.026461     -0.010463
Pd      9.76534      9.88579      8.01567        -0.008193      0.017797     -0.023892
Pd      8.48398     14.68308      6.56508        -0.002154      0.026553      0.000581
Pd     12.07149      9.05340      6.85384        -0.012126      0.010305     -0.004907
Pd      9.94116     10.00906      5.40935        -0.009642      0.009295      0.008827
Pd      6.92384      9.22531     12.17173        -0.015789      0.014475     -0.000523
Pd     12.42006      6.52375      7.68545        -0.013674      0.005976     -0.000283
Pd      5.58054     10.67280     10.11570         0.001289     -0.000103     -0.000026
Pd      7.57528      6.67146     12.69918         0.011208     -0.000664      0.018304
Ir     11.29839      9.55027     12.86073        -0.025873     -0.011051     -0.017166
Ir     13.09181      9.24162     11.10139        -0.028459     -0.002608      0.001987
Ir      9.15723      8.43528     13.75893         0.009559     -0.000261     -0.026430
Ir     10.28485     10.37896     15.08575        -0.016050     -0.012891     -0.024294
Ir      7.11104     11.91122     11.85007         0.026272     -0.017988     -0.008323
Ir     14.42480     11.19171     10.33382         0.001536      0.020916     -0.029142
Ir     12.29189     10.61939      9.07166         0.020493     -0.002469      0.008266
Ir      8.94264     10.80873     12.90440        -0.014190     -0.025629     -0.007544
Ir     10.03844     10.27944     10.63308        -0.014069      0.002735      0.012984
Ir     13.32080     11.21146     12.62960         0.001283     -0.010044     -0.003239
Ir     11.11477     12.04805     13.34748        -0.011775      0.004559      0.018154
Ir      7.96504     11.71822      9.52116        -0.005883      0.030051      0.013388
Ir     11.30074      8.14544      9.46424         0.004517     -0.000314      0.027405
Ir      6.96373     13.52968      8.32960         0.011281      0.016103      0.017339
Ir      9.08376      7.28981      8.79307        -0.019883     -0.011298      0.027990
Ir      7.75649      9.20839      9.70866        -0.002843     -0.026832     -0.000476
Ir     10.37155     12.32744      8.99615         0.001016     -0.043432     -0.023325
Ir      9.33974      7.88838     11.25536        -0.011008      0.009538      0.010407
Ir     13.76168      8.46365      8.81750         0.027799      0.003285     -0.028688
