152
# total energy = -1061.42100880 eVH     10.35389      5.87395      7.64558        -0.130546      0.119336      0.979844
H     10.62451     15.10445      7.64558         0.311653     -0.087161      0.805136
H     10.62451      5.87395     13.33282        -0.127833      0.083798     -0.493216
H     10.35389     15.10445     13.33282         0.084595     -0.195103     -0.396973
H      7.64558     10.35389      5.87395         0.903866      0.133842      0.212727
H      7.64558     10.62451     15.10445         0.204098     -0.017509     -0.064917
H     13.33282     10.62451      5.87395        -0.644887     -0.007073      0.165061
H     13.33282     10.35389     15.10445        -0.320301     -0.069231     -0.061455
H      5.87395      7.64558     10.35389         0.140468      0.354867     -0.057875
H     15.10445      7.64558     10.62451        -0.135716      0.533064      0.221638
H      5.87395     13.33282     10.62451         0.126073     -0.584840      0.062014
H     15.10445     13.33282     10.35389        -0.236425     -0.421688      0.085914
H      5.87395     10.35389      7.64558         0.176458      0.214214      0.362644
H     15.10445     10.62451      7.64558        -0.153516     -0.301967      0.657082
H      5.87395     10.62451     13.33282         0.035542      0.119104     -0.709797
H     15.10445     10.35389     13.33282         0.083466     -0.262226     -0.709526
H     10.35389      7.64558      5.87395        -0.102930      0.433817      0.240799
H     10.62451      7.64558     15.10445         0.414625      0.661642     -0.103726
H     10.62451     13.33282      5.87395         0.183150     -0.584013      0.109701
H     10.35389     13.33282     15.10445         0.201652     -0.742248     -0.073098
H      7.64558      5.87395     10.35389         0.461857      0.155862     -0.114372
H      7.64558     15.10445     10.62451         0.430148     -0.163398      0.380423
H     13.33282      5.87395     10.62451        -0.376670      0.158741     -0.067515
H     13.33282     15.10445     10.35389        -0.555453     -0.267406      0.122103
H     12.45634     12.45634     19.01126         0.235462      0.264600     -0.244877
H     19.01126     19.01126     19.01126        -0.260551     -0.262581     -0.226609
H     19.01126     12.45634     12.45634        -0.232679      0.271188      0.240925
H     12.45634     19.01126     12.45634         0.280496     -0.210643      0.252751
C     10.35284      5.61067      6.59456         0.289118     -0.289432     -0.850448
C     10.62556     15.36773      6.59456        -0.225872      0.636813     -0.294125
C     10.62556      5.61067     14.38384         0.270061     -0.320475      0.517251
C     10.35284     15.36773     14.38384        -0.119854      0.268612      0.268695
C      6.59456     10.35284      5.61067        -0.864698     -0.125681     -0.214797
C      6.59456     10.62556     15.36773        -0.546178      0.050323      0.347687
C     14.38384     10.62556      5.61067         0.879947     -0.041844     -0.607857
C     14.38384     10.35284     15.36773         0.270936     -0.087995      0.369745
C      5.61067      6.59456     10.35284        -0.383402     -0.388145      0.055953
C     15.36773      6.59456     10.62556         0.284960     -0.621524     -0.113930
C      5.61067     14.38384     10.62556        -0.159771      0.539423     -0.318819
C     15.36773     14.38384     10.35284         0.398154      0.800368     -0.103909
C      5.61067     10.35284      6.59456        -0.276030     -0.135357     -0.134304
C     15.36773     10.62556      6.59456         0.226589      0.256232     -0.527207
C      5.61067     10.62556     14.38384        -0.347238     -0.022749      1.210846
C     15.36773     10.35284     14.38384         0.304579     -0.060219      0.983473
C     10.35284      6.59456      5.61067         0.070473     -0.294708     -0.457961
C     10.62556      6.59456     15.36773        -0.013876     -0.862051      0.224170
C     10.62556     14.38384      5.61067        -0.403950      0.048738     -0.827558
C     10.35284     14.38384     15.36773        -0.243811      0.914172      0.236485
C      6.59456      5.61067     10.35284        -0.370468     -0.274963      0.220898
C      6.59456     15.36773     10.62556        -0.454680      0.565170      0.003433
C     14.38384      5.61067     10.62556         0.439019     -0.333303      0.064226
C     14.38384     15.36773     10.35284         0.894591      0.268433     -0.058388
C     10.40319      3.19606      7.29314         0.003668      0.561409     -0.311547
C     10.35913      4.25547      6.23373        -0.001667     -0.496564      0.435947
C      0.08601      7.29314      7.29314        -0.014000     -0.914002     -0.516376
C      0.13007      6.23373      6.23373        -0.160653      0.867899      0.154574
C      0.08601      3.19606      3.19606        -0.014240      0.367222      0.378542
C      0.13007      4.25547      4.25547         0.055914     -0.183443     -0.622448
C     10.40319      7.29314      3.19606        -0.049298     -1.106264      0.787456
C     10.35913      6.23373      4.25547         0.010880      0.335814     -0.194704
C      7.29314     10.40319      3.19606        -1.174624     -0.078628      0.344508
C      6.23373     10.35913      4.25547         0.270041      0.028026     -0.643686
C      7.29314      0.08601      7.29314        -0.897614     -0.003713     -0.412783
C      6.23373      0.13007      6.23373         0.282432      0.044925      0.129222
C      3.19606      0.08601      3.19606         0.323680     -0.001848      0.415584
C      4.25547      0.13007      4.25547        -0.284298     -0.041532     -0.171844
C      3.19606     10.40319      7.29314         0.500766     -0.045702     -1.014955
C      4.25547     10.35913      6.23373        -0.292337     -0.060198      0.106409
C      3.19606      7.29314     10.40319         1.005728     -0.493516      0.004557
C      4.25547      6.23373     10.35913        -0.160019      0.165434      0.001034
C      7.29314      7.29314      0.08601        -0.439826     -0.280715     -0.006574
C      6.23373      6.23373      0.13007         0.225384      0.090691     -0.138746
C      3.19606      3.19606      0.08601         0.343399      0.772385     -0.009884
C      4.25547      4.25547      0.13007        -0.454452     -0.198985      0.049016
C      7.29314      3.19606     10.40319        -0.203272      0.536440      0.021368
C      6.23373      4.25547     10.35913         0.015333     -0.312394      0.031738
O     10.43466      3.58206      8.50569        -0.022648      0.133750      0.371688
O     10.54374     17.39634      8.50569         0.051964      0.067481      0.310133
O     10.54374      3.58206     12.47271         0.042455      0.202662     -0.569884
O     10.43466     17.39634     12.47271         0.027665      0.000312     -0.432602
O      8.50569     10.43466      3.58206         0.750902     -0.070643      0.041136
O      8.50569     10.54374     17.39634         0.885326      0.022428     -0.159799
O     12.47271     10.54374      3.58206        -0.343697      0.040914      0.070093
O     12.47271     10.43466     17.39634        -0.377262     -0.034179      0.046866
O      3.58206      8.50569     10.43466        -0.075074      0.328546     -0.078338
O     17.39634      8.50569     10.54374        -0.112005      0.442133      0.037824
O      3.58206     12.47271     10.54374         0.137366     -0.767101     -0.011538
O     17.39634     12.47271     10.43466        -0.247537     -0.653322     -0.015006
O      3.58206     10.43466      8.50569         0.127347     -0.040181      0.797086
O     17.39634     10.54374      8.50569         0.024926      0.043411      0.305952
O      3.58206     10.54374     12.47271         0.070966      0.017152     -0.464666
O     17.39634     10.43466     12.47271         0.016824      0.018267     -0.282875
O     10.43466      8.50569      3.58206        -0.065091      0.596743     -0.070786
O     10.54374      8.50569     17.39634         0.020900      0.913878     -0.216712
O     10.54374     12.47271      3.58206         0.062986     -0.362649      0.087800
O     10.43466     12.47271     17.39634        -0.057988     -0.638607     -0.195239
O      8.50569      3.58206     10.43466         0.338117      0.071503     -0.051301
O      8.50569     17.39634     10.54374         0.520044     -0.140894      0.003377
O     12.47271      3.58206     10.54374        -0.384720      0.071784      0.032840
O     12.47271     17.39634     10.43466        -0.778734     -0.115558      0.058731
O     11.90042     11.90042     19.56718        -0.249013     -0.282086      0.235790
O     19.56718     19.56718     19.56718         0.293976      0.298334      0.244340
O     19.56718     11.90042     11.90042         0.231241     -0.300230     -0.282541
O     11.90042     19.56718     11.90042        -0.276203      0.179607     -0.264664
O      9.45224      1.03696      9.45224        -0.118635      0.105076     -0.082053
O      1.03696      9.45224      9.45224         0.146810     -0.137222     -0.168874
O      1.03696      1.03696      1.03696         0.135888      0.199526     -0.002639
O      9.45224      9.45224      1.03696        -0.212607     -0.158766      0.049510
Zr     10.48920      2.52580     10.48920         0.012878     -0.239481      0.157057
Zr     10.48920     18.45260     10.48920        -0.295522      0.272844     -0.192012
Zr     10.48920     10.48920      2.52580         0.309394      0.432363     -0.223932
Zr     10.48920     10.48920     18.45260         0.030017      0.012623      0.495044
Zr      2.52580     10.48920     10.48920        -0.560241      0.058608      0.326803
Zr     18.45260     10.48920     10.48920         0.272686     -0.164621      0.019350
Pd      9.10785     14.53848      9.20502         0.058976      0.027735      0.016081
Pd      8.40705     13.24430     13.79587         0.030943     -0.049455     -0.032251
Pd     12.07651     14.14520      8.68433         0.095372      0.074318     -0.038766
Pd     12.29186     12.76478     10.89440        -0.022794     -0.039094      0.064854
Pd     11.83012      7.08130     12.01028         0.008664      0.100167     -0.080557
Pd     11.08073     15.32623     10.90319         0.012119     -0.041835     -0.003477
Pd      9.64615     13.12324     11.43131        -0.069407     -0.024065      0.056865
Pd     14.01148     12.42297      8.07257         0.027056      0.030252      0.051129
Pd     11.62340     11.74432      6.79885        -0.034495      0.030394     -0.090452
Pd      7.54664      8.52073      7.21798        -0.012775      0.012786      0.004322
Pd      8.67611     11.98894      6.91511         0.050806     -0.051367      0.041285
Pd      9.82709      9.84391      8.03944        -0.064539      0.074678     -0.020622
Pd      8.48304     14.62516      6.54723         0.015269      0.041477      0.042701
Pd     12.14192      9.05813      6.88824        -0.016422     -0.007540      0.015650
Pd      9.98592      9.97476      5.42290         0.000355      0.025637      0.034511
Pd      6.93894      9.18325     12.19700         0.010202      0.019222      0.010584
Pd     12.45254      6.54203      7.73085        -0.041011     -0.032099      0.014378
Pd      5.60570     10.61456     10.10601        -0.112346     -0.014531     -0.033755
Pd      7.64000      6.64093     12.78081        -0.038737     -0.000437     -0.026204
Ir     11.30427      9.56487     12.90716        -0.055604      0.007923     -0.010789
Ir     13.11622      9.23579     11.17654        -0.214671     -0.258939     -0.163590
Ir      9.17304      8.43216     13.81484        -0.026580      0.052446     -0.026751
Ir     10.26316     10.37371     15.13638         0.076786      0.067326     -0.045049
Ir      7.09893     11.86882     11.84383         0.132136      0.004813      0.133773
Ir     14.48084     11.13432     10.39862         0.076811      0.180080     -0.154770
Ir     12.32966     10.61271      9.13185         0.003938     -0.146428      0.045870
Ir      8.93333     10.80203     12.94725        -0.075644      0.092859     -0.152995
Ir     10.04869     10.28559     10.67146         0.001895     -0.003848      0.061163
Ir     13.29917     11.23942     12.64943         0.003551      0.117196      0.134041
Ir     11.10030     12.05427     13.41313         0.035470     -0.076190     -0.069108
Ir      7.96572     11.70013      9.53165         0.171510      0.139832     -0.075295
Ir     11.34225      8.13820      9.53190         0.254169      0.040148      0.060282
Ir      6.92233     13.44396      8.26826         0.077725     -0.017231      0.002696
Ir      9.14676      7.26458      8.86003        -0.188365      0.030204     -0.044365
Ir      7.80024      9.19597      9.73699         0.074168     -0.185549     -0.013661
Ir     10.38955     12.29759      9.00954        -0.199631     -0.092449     -0.044901
Ir      9.37476      7.88813     11.31545        -0.041105      0.028632     -0.052492
Ir     13.81048      8.47302      8.87057        -0.143120      0.048958      0.078930
