152
# total energy = -1110.04260070 eVH     10.35389      5.87395      7.64558        -0.378314     -0.434696      1.186854
H     10.62451     15.10445      7.64558         0.405736      0.078463      0.939829
H     10.62451      5.87395     13.33282        -0.166209     -1.123909     -1.652111
H     10.35389     15.10445     13.33282        -0.616523      0.417463     -0.478476
H      7.64558     10.35389      5.87395         0.483104     -0.556050     -0.009436
H      7.64558     10.62451     15.10445         0.328809     -0.276503      0.056215
H     13.33282     10.62451      5.87395        -0.387565      0.383379      0.010627
H     13.33282     10.35389     15.10445        -0.467239      0.303147      0.109871
H      5.87395      7.64558     10.35389         0.070816      0.384166      0.033362
H     15.10445      7.64558     10.62451         0.357407      0.381845      0.168199
H      5.87395     13.33282     10.62451        -0.280574     -0.416075      0.403838
H     15.10445     13.33282     10.35389         0.047432     -0.368731     -0.416647
H      5.87395     10.35389      7.64558        -0.098181     -0.281939      1.559589
H     15.10445     10.62451      7.64558         0.136406      0.124988      0.989500
H      5.87395     10.62451     13.33282        -0.094975     -0.307495     -1.108113
H     15.10445     10.35389     13.33282         0.308070      0.537721     -1.214106
H     10.35389      7.64558      5.87395        -0.467286      0.552399     -0.315665
H     10.62451      7.64558     15.10445        -0.053185      0.730552      0.294898
H     10.62451     13.33282      5.87395         0.892676     -1.363832     -0.332394
H     10.35389     13.33282     15.10445         0.298605     -0.515046     -0.004871
H      7.64558      5.87395     10.35389         0.909252      0.118233     -0.132692
H      7.64558     15.10445     10.62451         2.055703      0.810075      0.257793
H     13.33282      5.87395     10.62451        -2.416809     -0.948596     -0.013095
H     13.33282     15.10445     10.35389        -0.846303     -0.036828     -0.248771
H     12.45634     12.45634     19.01126         0.269785      0.257359     -0.231317
H     19.01126     19.01126     19.01126        -0.267829     -0.251415     -0.239067
H     19.01126     12.45634     12.45634        -0.278910      0.287251      0.187434
H     12.45634     19.01126     12.45634         0.257652     -0.251737      0.237396
C     10.35284      5.61067      6.59456         0.168052     -0.390196     -1.609529
C     10.62556     15.36773      6.59456         0.139773      0.647504     -0.852673
C     10.62556      5.61067     14.38384         0.058073     -0.267892      2.082723
C     10.35284     15.36773     14.38384         0.161479      0.219713      1.831287
C      6.59456     10.35284      5.61067        -1.174971     -0.175416     -0.952893
C      6.59456     10.62556     15.36773        -0.608556     -0.137170      0.663980
C     14.38384     10.62556      5.61067         0.698898     -0.133512     -0.773430
C     14.38384     10.35284     15.36773         1.113681      0.139166      0.907797
C      5.61067      6.59456     10.35284        -0.861363     -0.689050     -0.138038
C     15.36773      6.59456     10.62556         1.925928      0.017261     -0.048115
C      5.61067     14.38384     10.62556        -1.541903      0.162237     -0.002572
C     15.36773     14.38384     10.35284         0.468159      0.172954      0.021162
C      5.61067     10.35284      6.59456        -0.344683      0.274761     -1.683059
C     15.36773     10.62556      6.59456         0.297847      0.003691     -0.919683
C      5.61067     10.62556     14.38384        -0.370330      0.258512      1.485448
C     15.36773     10.35284     14.38384         0.149451     -0.333723      1.670595
C     10.35284      6.59456      5.61067        -0.253542     -1.265819     -0.976776
C     10.62556      6.59456     15.36773        -0.053085     -1.071052      1.182015
C     10.62556     14.38384      5.61067        -0.444394      2.060464     -0.724565
C     10.35284     14.38384     15.36773        -0.265612      1.591580      0.377154
C      6.59456      5.61067     10.35284        -1.023445     -0.337221      0.067686
C      6.59456     15.36773     10.62556        -1.519087      0.298785     -0.347039
C     14.38384      5.61067     10.62556         1.313259     -0.467621     -0.072420
C     14.38384     15.36773     10.35284         0.352962      0.251134      0.049076
C     10.40319      3.19606      7.29314         0.022886      0.296597     -0.121545
C     10.35913      4.25547      6.23373         0.115645     -0.417536      0.196901
C      0.08601      7.29314      7.29314        -0.053456     -0.351718     -0.437220
C      0.13007      6.23373      6.23373        -0.155894      0.839809      0.043487
C      0.08601      3.19606      3.19606        -0.119219      1.516288      0.167937
C      0.13007      4.25547      4.25547        -0.140311     -0.399321     -1.367929
C     10.40319      7.29314      3.19606         0.035929     -0.462763      0.095081
C     10.35913      6.23373      4.25547         0.229745      0.158946     -0.393095
C      7.29314     10.40319      3.19606        -1.705050      0.024350      0.248407
C      6.23373     10.35913      4.25547         0.523544      0.045486     -0.521632
C      7.29314      0.08601      7.29314        -0.374494      0.009549     -0.269904
C      6.23373      0.13007      6.23373         0.387914      0.006961      0.349147
C      3.19606      0.08601      3.19606         0.636966      0.008147      0.297431
C      4.25547      0.13007      4.25547        -0.411181      0.005319     -0.414096
C      3.19606     10.40319      7.29314         0.385907      0.046780     -0.390109
C      4.25547     10.35913      6.23373        -0.661756      0.082995      0.417582
C      3.19606      7.29314     10.40319         0.357301     -0.314934     -0.003791
C      4.25547      6.23373     10.35913         0.016784      0.661994      0.106545
C      7.29314      7.29314      0.08601        -0.685868     -0.459462     -0.025179
C      6.23373      6.23373      0.13007         0.320369      1.274562     -0.018623
C      3.19606      3.19606      0.08601         0.783355      0.430642     -0.004584
C      4.25547      4.25547      0.13007        -0.433995     -1.464178     -0.086626
C      7.29314      3.19606     10.40319        -0.353506      0.298933      0.004011
C      6.23373      4.25547     10.35913         0.581887     -0.161861      0.241272
O     10.43466      3.58206      8.50569        -0.044975      0.192313      0.284220
O     10.54374     17.39634      8.50569         0.043489     -0.217299      0.480853
O     10.54374      3.58206     12.47271         0.095022     -0.013948     -0.083081
O     10.43466     17.39634     12.47271        -0.036938     -0.102852     -0.235721
O      8.50569     10.43466      3.58206         0.910918      0.183044      0.396068
O      8.50569     10.54374     17.39634         0.551872      0.073764     -0.211787
O     12.47271     10.54374      3.58206        -0.507177     -0.018399      0.186940
O     12.47271     10.43466     17.39634        -0.525502     -0.069805     -0.190342
O      3.58206      8.50569     10.43466         0.165986      0.502579     -0.043337
O     17.39634      8.50569     10.54374        -0.189726      0.664086      0.044759
O      3.58206     12.47271     10.54374         0.150806     -0.616440      0.026778
O     17.39634     12.47271     10.43466        -0.174989     -0.509720     -0.015874
O      3.58206     10.43466      8.50569         0.216745     -0.079521      0.434751
O     17.39634     10.54374      8.50569        -0.160425      0.031393      0.425314
O      3.58206     10.54374     12.47271         0.144199      0.002443     -0.377563
O     17.39634     10.43466     12.47271         0.073793     -0.064769     -0.068714
O     10.43466      8.50569      3.58206         0.002271      0.355778      0.186054
O     10.54374      8.50569     17.39634         0.073448      0.460809     -0.199901
O     10.54374     12.47271      3.58206        -0.223275     -0.904157      0.347683
O     10.43466     12.47271     17.39634        -0.079205     -0.432561     -0.236432
O      8.50569      3.58206     10.43466         0.509325      0.193313     -0.018037
O      8.50569     17.39634     10.54374         0.617105     -0.195544      0.035415
O     12.47271      3.58206     10.54374        -0.711499      0.279092      0.041847
O     12.47271     17.39634     10.43466        -0.475846     -0.185569     -0.039519
O     11.90042     11.90042     19.56718        -0.333718     -0.304560      0.262934
O     19.56718     19.56718     19.56718         0.331125      0.305076      0.286009
O     19.56718     11.90042     11.90042         0.278570     -0.293048     -0.134564
O     11.90042     19.56718     11.90042        -0.317665      0.296029     -0.237208
O      9.45224      1.03696      9.45224        -0.049375      0.071510     -0.040191
O      1.03696      9.45224      9.45224         0.039124     -0.068725     -0.068365
O      1.03696      1.03696      1.03696         0.039559      0.115709      0.126431
O      9.45224      9.45224      1.03696        -0.108275     -0.066061      0.139045
Zr     10.48920      2.52580     10.48920         0.091455     -0.151830     -0.160641
Zr     10.48920     18.45260     10.48920        -0.049661      0.167394     -0.032634
Zr     10.48920     10.48920      2.52580         0.399684     -0.276530     -0.240802
Zr     10.48920     10.48920     18.45260        -0.024895     -0.063267      0.194263
Zr      2.52580     10.48920     10.48920        -0.057611      0.124975     -0.035624
Zr     18.45260     10.48920     10.48920         0.111622     -0.108610     -0.293432
Ir     12.02259     12.42470     10.44204        -0.039178      0.044798      0.065223
Ir     10.83943      7.36042     10.42092         0.091715      0.016937     -0.049724
Ir      8.49714      7.47141     11.66699         0.087226      0.000804     -0.014856
Ir      7.38343     11.76800      7.68591         0.032355     -0.025793     -0.044007
Ir     11.49557     12.07658      7.14191         0.035601     -0.004206     -0.017579
Ir     13.44029      8.85474      7.57169         0.095461      0.027055     -0.013438
Ir     12.49252     13.89540      8.42829         0.025632      0.025701     -0.010285
Ir      9.57791     11.31276      5.60307         0.035755     -0.009066      0.014362
Ir      9.05889     13.51472      7.08156         0.023795      0.014969     -0.016346
Ir      9.11817      9.69716      7.59779         0.049979     -0.027576     -0.023428
Ir     13.01385      7.08287     11.91884         0.067912     -0.039217      0.012780
Ir     13.19182      6.93036      9.13313         0.091709      0.027029     -0.036551
Ir     10.74947      7.59007     12.93581         0.058650      0.017463     -0.002084
Ir     13.52970     11.44272      8.70661         0.049719      0.024826      0.003295
Ir     11.32086      9.67064      6.26364         0.055987      0.031916     -0.031468
Ir      6.89356      9.36903      9.04052         0.062239     -0.032977     -0.033166
Ir     14.09171     11.35818     11.50269        -0.029875     -0.051190      0.084545
Ir     11.46006      9.89086      8.94311         0.037037      0.025516      0.014419
Ir      9.19981      9.58118     10.28491         0.075904     -0.007066     -0.006148
Ir     13.64395      9.27347     10.16022         0.057932      0.024411      0.030970
Ir     13.63613      9.21678     12.85736         0.033124     -0.079601      0.021535
Ir     11.46221      9.68430     11.58891         0.079010      0.030959     -0.015354
Ir      9.79857     11.82498      9.01432         0.061425     -0.004871     -0.007669
Ir      8.68005      7.49635      8.92292         0.078545     -0.016401      0.001471
Ir     11.09350      7.63470      7.90817         0.102060     -0.036384     -0.001347
Ir      9.05674      9.56966     13.04124         0.052768     -0.020772     -0.012283
Ir      7.56073     14.03874      9.00220        -0.011679     -0.008842      0.001312
Ir     10.95915     14.04290     12.01136         0.027249     -0.000679     -0.079936
Ir     10.14907     14.22451      9.56860         0.009123     -0.023474     -0.012924
Ir      9.73762     11.71947     11.72842         0.060031      0.033437     -0.021543
Ir      7.49876     11.73729     10.26264         0.020062     -0.018750     -0.030928
Ir      8.42431     13.86219     11.64700         0.004324     -0.007435     -0.027750
Ir      7.49515     11.79253     12.91845         0.004820     -0.035198     -0.038914
Ir      9.78511     11.67436     14.32330        -0.013260      0.011217      0.010053
Ir     13.52426     13.78867     12.14892         0.016609      0.003423      0.007274
Ir     12.05414     11.91762     13.04151        -0.057077      0.072077     -0.005377
Ir     11.45162      9.76196     14.23888         0.039979      0.032073     -0.012325
Ir      6.92360      9.60067     11.58471         0.060332     -0.030071     -0.027649
