152
# total energy = -1022.84024110 eVH     10.35389      5.87395      7.64558         0.477393      0.030489      0.915647
H     10.62451     15.10445      7.64558        -0.042075      0.037352      0.761159
H     10.62451      5.87395     13.33282         0.142884      0.116207     -0.603685
H     10.35389     15.10445     13.33282        -0.267232     -0.076805     -0.566474
H      7.64558     10.35389      5.87395         0.334876     -0.037933      0.191109
H      7.64558     10.62451     15.10445         0.615665     -0.185984     -0.140986
H     13.33282     10.62451      5.87395        -0.862793     -0.326900      0.165712
H     13.33282     10.35389     15.10445        -0.468252     -0.093387     -0.057873
H      5.87395      7.64558     10.35389         0.122528      1.131784     -0.142467
H     15.10445      7.64558     10.62451        -0.168151      0.402439     -0.086104
H      5.87395     13.33282     10.62451         0.143576     -0.407068     -0.071290
H     15.10445     13.33282     10.35389        -0.077407     -0.967136     -0.202095
H      5.87395     10.35389      7.64558         0.129741      0.037665      0.482041
H     15.10445     10.62451      7.64558         0.131642     -0.220792      0.800719
H      5.87395     10.62451     13.33282         0.270252     -0.028585     -0.395618
H     15.10445     10.35389     13.33282        -0.144733      0.009830     -0.627321
H     10.35389      7.64558      5.87395         0.072570      0.835339      0.118727
H     10.62451      7.64558     15.10445         0.027707      0.558189     -0.143401
H     10.62451     13.33282      5.87395         0.074507     -0.601912      0.182800
H     10.35389     13.33282     15.10445        -0.249985     -0.891550     -0.110489
H      7.64558      5.87395     10.35389         0.528128      0.036644     -0.139330
H      7.64558     15.10445     10.62451         0.909633     -0.210384      0.302510
H     13.33282      5.87395     10.62451        -0.435706      0.187434     -0.058978
H     13.33282     15.10445     10.35389        -0.998724     -0.099907      0.243295
H     12.45634     12.45634     19.01126         0.267594      0.257729     -0.224080
H     19.01126     19.01126     19.01126        -0.247502     -0.234990     -0.262522
H     19.01126     12.45634     12.45634        -0.241446      0.270345      0.238741
H     12.45634     19.01126     12.45634         0.210932     -0.283498      0.252834
C     10.35284      5.61067      6.59456        -0.130480     -0.426946     -0.428228
C     10.62556     15.36773      6.59456         0.020742      0.347271     -1.141965
C     10.62556      5.61067     14.38384        -0.024795     -0.222718      0.721197
C     10.35284     15.36773     14.38384         0.191878      0.771368      0.132479
C      6.59456     10.35284      5.61067        -0.425398     -0.041293     -0.184835
C      6.59456     10.62556     15.36773        -0.786574      0.147528      0.350017
C     14.38384     10.62556      5.61067         0.650128      0.280148     -0.366151
C     14.38384     10.35284     15.36773         0.743958     -0.123469      0.430572
C      5.61067      6.59456     10.35284        -0.427884     -0.772108      0.267622
C     15.36773      6.59456     10.62556         0.195309     -0.469291      0.046412
C      5.61067     14.38384     10.62556        -0.254915      0.381535     -0.022965
C     15.36773     14.38384     10.35284         0.400681      0.145674      0.191786
C      5.61067     10.35284      6.59456        -0.307774     -0.011984     -0.890824
C     15.36773     10.62556      6.59456         0.565797     -0.145721     -1.234365
C      5.61067     10.62556     14.38384        -0.464062      0.007667      0.907158
C     15.36773     10.35284     14.38384         0.531177     -0.176676      1.252799
C     10.35284      6.59456      5.61067        -0.034445     -0.912677     -0.678799
C     10.62556      6.59456     15.36773         0.043464     -0.667169      0.300334
C     10.62556     14.38384      5.61067         0.041215      1.262504     -0.694246
C     10.35284     14.38384     15.36773         0.091725      0.595942      0.666157
C      6.59456      5.61067     10.35284        -0.227421     -0.895282      0.127909
C      6.59456     15.36773     10.62556        -1.730377      0.496079      0.042712
C     14.38384      5.61067     10.62556         0.579066     -0.222535     -0.006985
C     14.38384     15.36773     10.35284         0.170759      0.550893     -0.243317
C     10.40319      3.19606      7.29314         0.017203      0.925732     -0.253942
C     10.35913      4.25547      6.23373        -0.052301     -0.362424      0.626056
C      0.08601      7.29314      7.29314        -0.008872     -0.236316     -0.470644
C      0.13007      6.23373      6.23373         0.001313      0.116368      0.205266
C      0.08601      3.19606      3.19606        -0.016675      0.650231      0.179061
C      0.13007      4.25547      4.25547        -0.090627     -0.198052     -0.170422
C     10.40319      7.29314      3.19606        -0.000594     -0.693032      0.526842
C     10.35913      6.23373      4.25547        -0.004957      0.526216     -0.382681
C      7.29314     10.40319      3.19606        -0.348198      0.022809      0.851469
C      6.23373     10.35913      4.25547         0.212727      0.015527     -0.144909
C      7.29314      0.08601      7.29314        -0.309067     -0.046607     -0.269136
C      6.23373      0.13007      6.23373         0.264996     -0.059246      0.293767
C      3.19606      0.08601      3.19606         0.434162     -0.052552      1.301515
C      4.25547      0.13007      4.25547        -0.116944     -0.027693     -0.460091
C      3.19606     10.40319      7.29314         0.714615      0.015179     -0.263075
C      4.25547     10.35913      6.23373        -0.137384      0.034786      0.109983
C      3.19606      7.29314     10.40319         0.600799     -1.262554      0.026785
C      4.25547      6.23373     10.35913        -0.718385      0.833111      0.047958
C      7.29314      7.29314      0.08601        -0.660357     -0.170363     -0.022610
C      6.23373      6.23373      0.13007         0.172575      0.269686     -0.009665
C      3.19606      3.19606      0.08601         0.241760      0.251112     -0.019652
C      4.25547      4.25547      0.13007        -0.051972     -0.037135      0.012338
C      7.29314      3.19606     10.40319        -0.372799      0.785696      0.016450
C      6.23373      4.25547     10.35913         0.870304     -0.163571      0.012407
O     10.43466      3.58206      8.50569        -0.050263      0.028336      0.315363
O     10.54374     17.39634      8.50569        -0.024189     -0.182746      0.604508
O     10.54374      3.58206     12.47271         0.055580      0.060710     -0.322034
O     10.43466     17.39634     12.47271        -0.024413     -0.123798     -0.580047
O      8.50569     10.43466      3.58206         0.385703     -0.023400     -0.011373
O      8.50569     10.54374     17.39634         0.470355      0.053754     -0.142631
O     12.47271     10.54374      3.58206        -0.282423      0.049829     -0.079390
O     12.47271     10.43466     17.39634        -0.857100      0.021553     -0.223634
O      3.58206      8.50569     10.43466         0.040857      0.915290      0.038762
O     17.39634      8.50569     10.54374        -0.038257      0.337584      0.078179
O      3.58206     12.47271     10.54374         0.064193     -0.420481      0.063432
O     17.39634     12.47271     10.43466        -0.169674     -0.772512      0.018958
O      3.58206     10.43466      8.50569        -0.057219     -0.066355      0.223114
O     17.39634     10.54374      8.50569        -0.136092      0.042272      0.458036
O      3.58206     10.54374     12.47271        -0.021241     -0.051481     -0.891442
O     17.39634     10.43466     12.47271        -0.197880      0.041792     -0.761909
O     10.43466      8.50569      3.58206         0.044425      0.685893      0.192737
O     10.54374      8.50569     17.39634         0.054083      0.430711     -0.078222
O     10.54374     12.47271      3.58206        -0.009615     -0.731644      0.228337
O     10.43466     12.47271     17.39634         0.051004     -0.860690     -0.276225
O      8.50569      3.58206     10.43466         0.493927      0.077847     -0.039001
O      8.50569     17.39634     10.54374         0.657492     -0.253536     -0.061744
O     12.47271      3.58206     10.54374        -0.487076      0.163423      0.039771
O     12.47271     17.39634     10.43466        -0.526163     -0.038902     -0.030580
O     11.90042     11.90042     19.56718        -0.304456     -0.311913      0.263081
O     19.56718     19.56718     19.56718         0.287460      0.271711      0.321033
O     19.56718     11.90042     11.90042         0.280468     -0.330366     -0.244205
O     11.90042     19.56718     11.90042        -0.228054      0.291205     -0.240980
O      9.45224      1.03696      9.45224        -0.074317      0.049737     -0.066605
O      1.03696      9.45224      9.45224         0.057038     -0.145204     -0.056597
O      1.03696      1.03696      1.03696         0.043751      0.032718      0.187521
O      9.45224      9.45224      1.03696        -0.039453     -0.091825      0.122711
Zr     10.48920      2.52580     10.48920        -0.007454     -0.074581     -0.022225
Zr     10.48920     18.45260     10.48920         0.059614      0.306365     -0.070891
Zr     10.48920     10.48920      2.52580        -0.100796      0.010374     -0.374278
Zr     10.48920     10.48920     18.45260        -0.138893     -0.163309      0.327803
Zr      2.52580     10.48920     10.48920        -0.346623      0.316875     -0.465840
Zr     18.45260     10.48920     10.48920         0.238056      0.038921     -0.263230
Pd      9.04349     10.26956     13.34299        -0.012505     -0.004511      0.000791
Pd     10.58355      9.72670     10.99661         0.007436     -0.004269     -0.070860
Pd     13.76055      8.55398     12.67928         0.036920     -0.005655      0.005778
Pd     11.00042     11.08336     15.03996        -0.002442     -0.034388     -0.050427
Pd     12.86608     11.19934     13.04524         0.019566      0.017244      0.002974
Pd     14.97641     10.93304     11.34381         0.004304      0.019692     -0.005860
Pd      6.66319      7.43630     12.33614        -0.004247      0.020693      0.006261
Pd      9.21963      7.26660     10.14075        -0.001215      0.010406     -0.022518
Pd      9.27362      7.62082     12.80749         0.002339     -0.004939     -0.014909
Pd     11.69746      7.29425     11.46786         0.004769      0.009946     -0.010618
Pd     11.37755      7.99747      8.85997         0.035005      0.000458      0.003652
Pd      7.26072     11.83997     11.96534         0.003587     -0.002144     -0.025383
Pd      8.90609     14.67754      9.34016         0.038957      0.032023      0.022706
Pd      8.41715     12.66815     14.33084         0.006352     -0.016287     -0.032006
Pd     13.51296     14.07795      8.56426         0.094547      0.038569     -0.040911
Pd     10.97750     13.33115      8.52276         0.084619      0.033861      0.035379
Pd     14.08211     11.51070      8.92373         0.003130      0.050245     -0.006645
Pd      8.62835     14.11129     12.10388         0.025613     -0.023897      0.010910
Pd     12.24527     13.75342     14.02854        -0.025271     -0.016246     -0.011855
Pd     11.17104     14.42596     11.14756         0.016825     -0.017613      0.059240
Pd     14.05849     13.55731     12.17131        -0.009697      0.018474     -0.001149
Pd     12.31359     12.13441     10.68434        -0.005655     -0.016639      0.009733
Pd     12.64709     12.31134      6.71565         0.024646      0.059667     -0.006579
Pd     13.63868      8.93292      7.91878         0.057295     -0.001120     -0.034664
Pd      6.85930      8.46766      8.86161         0.017577      0.017918     -0.007175
Pd      5.52757      9.93317     11.27127         0.008170      0.042916     -0.054005
Pd      9.13243      9.75881      8.30006         0.024204     -0.026664     -0.006597
Pd      8.82820      7.24517      7.48360        -0.020491     -0.014935     -0.045006
Pd      9.52574     12.08272     10.43406         0.026633      0.006865      0.014576
Pd     11.52106     10.70836      8.58127         0.013613      0.019901     -0.021502
Pd     11.22666      9.25734      6.43961         0.036649     -0.048589     -0.042507
Pd      9.88451     11.56666      6.37534         0.036515     -0.031775     -0.030978
Ir     11.36026      9.11844     13.37053        -0.012937      0.016878     -0.005602
Ir     13.07185      9.47963     10.38597        -0.006462     -0.037149      0.034957
Ir     10.54019     12.35919     12.71762        -0.022056      0.010542      0.032994
Ir      7.13980     10.98939      9.51003         0.021140      0.011205      0.006983
Ir      8.40977     12.46525      8.19295         0.003728      0.007505     -0.006079
Ir      8.06739      9.31257     11.12235        -0.002236     -0.002613      0.016519
