152
# total energy = -1005.94930792 eVH     10.35389      5.87395      7.64558         0.192873      0.061036      0.594145
H     10.62451     15.10445      7.64558        -0.102801     -0.152606      0.524447
H     10.62451      5.87395     13.33282         0.489391      0.121131     -0.601221
H     10.35389     15.10445     13.33282         0.059396     -0.183918     -0.521195
H      7.64558     10.35389      5.87395         0.363074      0.030130      0.172529
H      7.64558     10.62451     15.10445         0.686447      0.487292     -0.043685
H     13.33282     10.62451      5.87395        -0.495664      0.381423      0.090415
H     13.33282     10.35389     15.10445        -0.792209     -0.075529     -0.009072
H      5.87395      7.64558     10.35389         0.274311      1.032209     -0.047471
H     15.10445      7.64558     10.62451        -0.101755      0.483870      0.280546
H      5.87395     13.33282     10.62451         0.151571     -0.690955     -0.175987
H     15.10445     13.33282     10.35389        -0.020165     -1.034118     -0.296647
H      5.87395     10.35389      7.64558         0.232228      0.035439      0.492766
H     15.10445     10.62451      7.64558        -0.123868      0.431929      0.789792
H      5.87395     10.62451     13.33282         0.150607      0.355960     -0.695500
H     15.10445     10.35389     13.33282        -0.058887     -0.053426     -0.688048
H     10.35389      7.64558      5.87395         0.324512      1.096949      0.030802
H     10.62451      7.64558     15.10445         0.532572      0.537992     -0.117497
H     10.62451     13.33282      5.87395        -0.404960     -0.817562      0.216092
H     10.35389     13.33282     15.10445        -0.042948     -0.443224     -0.231862
H      7.64558      5.87395     10.35389         0.870613      0.067595     -0.251619
H      7.64558     15.10445     10.62451         0.830840     -0.197984     -0.022680
H     13.33282      5.87395     10.62451        -0.780159      0.190141      0.586155
H     13.33282     15.10445     10.35389        -0.420042     -0.106704     -0.124897
H     12.45634     12.45634     19.01126         0.238206      0.268228     -0.239773
H     19.01126     19.01126     19.01126        -0.260901     -0.241687     -0.261637
H     19.01126     12.45634     12.45634        -0.268311      0.266756      0.221782
H     12.45634     19.01126     12.45634         0.233420     -0.260685      0.272005
C     10.35284      5.61067      6.59456        -0.383586     -0.684048      0.015411
C     10.62556     15.36773      6.59456         0.070534      0.369598     -0.297035
C     10.62556      5.61067     14.38384        -0.320155     -0.400596     -0.257125
C     10.35284     15.36773     14.38384        -0.001190      0.287001      0.520431
C      6.59456     10.35284      5.61067        -0.345679     -0.002593     -0.262228
C      6.59456     10.62556     15.36773        -0.280444     -0.206622      0.791373
C     14.38384     10.62556      5.61067        -0.226950     -0.407588     -0.525637
C     14.38384     10.35284     15.36773         0.956119     -0.072132      0.217975
C      5.61067      6.59456     10.35284        -0.550671     -0.037092     -0.229650
C     15.36773      6.59456     10.62556         0.556773     -0.003054     -0.247860
C      5.61067     14.38384     10.62556        -0.314135      0.986361      0.076783
C     15.36773     14.38384     10.35284         0.275280      1.036552      0.055943
C      5.61067     10.35284      6.59456        -0.218248     -0.066382     -0.621320
C     15.36773     10.62556      6.59456         0.424215     -0.255756      0.120094
C      5.61067     10.62556     14.38384        -0.664666     -0.343092     -0.120000
C     15.36773     10.35284     14.38384         0.392484     -0.058422      1.024788
C     10.35284      6.59456      5.61067        -0.228620     -0.457511     -0.593819
C     10.62556      6.59456     15.36773        -0.251791      0.151819      0.447275
C     10.62556     14.38384      5.61067         0.213847      1.040965     -0.337547
C     10.35284     14.38384     15.36773         0.004481      0.605323      0.392117
C      6.59456      5.61067     10.35284        -0.063915     -0.935778      0.279459
C      6.59456     15.36773     10.62556        -1.009464      0.269180      0.087507
C     14.38384      5.61067     10.62556         0.447456     -0.535550     -0.375771
C     14.38384     15.36773     10.35284         0.201630      0.440060     -0.082313
C     10.40319      3.19606      7.29314         0.015488      0.681578     -0.493099
C     10.35913      4.25547      6.23373         0.086453     -0.619253      0.038611
C      0.08601      7.29314      7.29314        -0.043489     -0.410148     -0.322900
C      0.13007      6.23373      6.23373        -0.030687      0.093047      0.571705
C      0.08601      3.19606      3.19606         0.000617      1.320162      0.291205
C      0.13007      4.25547      4.25547         0.051095     -0.762013     -0.181564
C     10.40319      7.29314      3.19606         0.011143     -0.311089      0.297463
C     10.35913      6.23373      4.25547         0.021583      0.026563     -0.766224
C      7.29314     10.40319      3.19606        -0.272299      0.020683      0.565157
C      6.23373     10.35913      4.25547         0.168119      0.055279     -0.072932
C      7.29314      0.08601      7.29314        -0.519558     -0.066604     -0.372340
C      6.23373      0.13007      6.23373         0.690494     -0.070420      0.467692
C      3.19606      0.08601      3.19606         0.855706     -0.027375      0.590315
C      4.25547      0.13007      4.25547        -0.598841     -0.083242     -0.533977
C      3.19606     10.40319      7.29314         0.466548     -0.008447     -0.741706
C      4.25547     10.35913      6.23373        -0.295346      0.073768      0.192494
C      3.19606      7.29314     10.40319         0.297999     -1.289180      0.043274
C      4.25547      6.23373     10.35913        -0.933846      0.095693      0.127862
C      7.29314      7.29314      0.08601        -0.411694     -0.381190     -0.023655
C      6.23373      6.23373      0.13007         0.452901      0.228127     -0.007697
C      3.19606      3.19606      0.08601         0.484847      0.376906     -0.042266
C      4.25547      4.25547      0.13007        -0.151842     -0.645914     -0.034816
C      7.29314      3.19606     10.40319        -0.343823      0.448114      0.069350
C      6.23373      4.25547     10.35913         0.311434     -0.685971      0.147820
O     10.43466      3.58206      8.50569        -0.012370      0.106974      0.507431
O     10.54374     17.39634      8.50569         0.034328     -0.174287      0.496551
O     10.54374      3.58206     12.47271         0.045294     -0.101804     -0.179146
O     10.43466     17.39634     12.47271        -0.038906     -0.183944     -0.518985
O      8.50569     10.43466      3.58206         0.276801     -0.014443      0.016373
O      8.50569     10.54374     17.39634         0.628658      0.034173     -0.146102
O     12.47271     10.54374      3.58206        -0.781167      0.092399      0.099663
O     12.47271     10.43466     17.39634        -0.436508      0.022803     -0.104070
O      3.58206      8.50569     10.43466         0.152117      1.039548     -0.029145
O     17.39634      8.50569     10.54374        -0.161080      0.545146      0.076211
O      3.58206     12.47271     10.54374         0.086480     -0.375180      0.053112
O     17.39634     12.47271     10.43466        -0.154284     -0.542209     -0.023892
O      3.58206     10.43466      8.50569         0.081782     -0.069664      0.592257
O     17.39634     10.54374      8.50569        -0.108226      0.069605      0.524609
O      3.58206     10.54374     12.47271         0.010561      0.040253     -0.501622
O     17.39634     10.43466     12.47271        -0.231207     -0.040241     -0.631453
O     10.43466      8.50569      3.58206        -0.037516      0.444799      0.140692
O     10.54374      8.50569     17.39634         0.048097      0.538097     -0.156571
O     10.54374     12.47271      3.58206         0.022773     -1.044983      0.182130
O     10.43466     12.47271     17.39634         0.037811     -0.710873     -0.176655
O      8.50569      3.58206     10.43466         0.528446      0.149930     -0.056891
O      8.50569     17.39634     10.54374         0.487685     -0.195127      0.014746
O     12.47271      3.58206     10.54374        -0.624448      0.220740      0.004931
O     12.47271     17.39634     10.43466        -0.238632      0.060384     -0.046677
O     11.90042     11.90042     19.56718        -0.243898     -0.285446      0.248085
O     19.56718     19.56718     19.56718         0.309606      0.297001      0.302277
O     19.56718     11.90042     11.90042         0.298535     -0.264023     -0.234614
O     11.90042     19.56718     11.90042        -0.240283      0.295772     -0.317527
O      9.45224      1.03696      9.45224        -0.015922      0.091723     -0.074876
O      1.03696      9.45224      9.45224         0.089618     -0.088411     -0.132510
O      1.03696      1.03696      1.03696         0.093671      0.189377      0.055410
O      9.45224      9.45224      1.03696        -0.105195     -0.105125      0.037779
Zr     10.48920      2.52580     10.48920        -0.131937     -0.288743     -0.023161
Zr     10.48920     18.45260     10.48920        -0.065465      0.209404      0.061671
Zr     10.48920     10.48920      2.52580        -0.047550     -0.400511     -0.271480
Zr     10.48920     10.48920     18.45260        -0.260684     -0.114983      0.321061
Zr      2.52580     10.48920     10.48920        -0.382733      0.223596      0.244883
Zr     18.45260     10.48920     10.48920         0.229630      0.002123     -0.211217
Pd     13.58252      8.92111      9.27126         0.001247      0.003481     -0.007825
Pd      5.63723      9.88574     10.17101         0.001838     -0.013127     -0.011017
Pd      6.78183     11.85687     11.67808         0.000835     -0.004504     -0.002205
Pd     12.14243     13.03867      7.32436        -0.015627     -0.002386      0.010130
Pd     11.92292      7.77728      7.41819        -0.003269     -0.010337      0.001597
Pd      8.29600      6.97619      6.58350         0.002894     -0.022061      0.007504
Pd     10.77592     11.19388      5.62094        -0.020082      0.000494      0.000150
Pd     14.45244      8.54876      6.78454        -0.007595      0.000640     -0.006116
Pd      9.68861     11.76956      8.05719         0.001319     -0.008061      0.006941
Pd      6.79163      6.80612     12.30123         0.000956      0.001946     -0.001552
Pd      6.44530      7.80167      8.24149         0.009226      0.025751     -0.016423
Pd      6.53111      8.50825     14.32033         0.021446      0.005209     -0.001591
Pd     11.49630      6.49642      9.81894         0.007025      0.010957      0.015700
Pd      9.58846      9.25597      7.10501        -0.000629     -0.010353     -0.003913
Pd      9.00317     14.00327      9.30139        -0.003225     -0.005473      0.002179
Pd      9.52961      7.35493     11.72758        -0.003160      0.001675      0.001234
Pd     10.56515      8.97934      9.67162         0.008312      0.005383     -0.002323
Pd      9.32137     11.51136     10.63975         0.005320     -0.001917      0.007129
Pd      8.90401      7.02222      9.15241         0.002629      0.007311      0.003971
Pd      8.56282      6.60243     14.24043        -0.002033     -0.013889     -0.000191
Pd      7.69314      9.33336     11.93139        -0.001685      0.001829     -0.005541
Pd     11.99361     10.41862      7.78761         0.001113     -0.006071     -0.015854
Pd      7.14339     12.02650      9.02608        -0.002054      0.001544      0.002726
Pd      8.07222      9.57700      9.26091         0.008688      0.009266     -0.002050
Pd     14.02892      6.46634      8.49930         0.003029     -0.000302      0.000341
Pd     12.48282      8.30333     11.59113         0.026397      0.015435      0.001212
Pd      8.75498     11.59927     13.38404         0.006213     -0.019112      0.003558
Pd     13.91507     11.95053      8.98171        -0.001495     -0.000413     -0.008099
Pd     12.92604     10.64070     13.05058         0.008669      0.008542      0.000702
Pd     14.79049     10.42463     11.10617        -0.000006      0.002956     -0.006441
Pd     12.08694     10.85124     10.52642         0.003215      0.009062     -0.002931
Pd     11.45603     13.28899      9.87320        -0.003578      0.010031      0.015190
Pd     13.60038     12.89187     11.63558        -0.000896      0.005563     -0.003845
Pd     11.10993     12.59616     12.48469         0.001818     -0.006927      0.012243
Pd     10.94475     11.09838     14.79968         0.009693     -0.013831      0.007285
Pd     10.47005      9.77340     12.37299         0.007369     -0.008048      0.004230
Pd      9.07688      9.17007     14.42560         0.025650     -0.013136      0.013508
Pd      8.82002     13.84031     11.97343         0.002854     -0.010371      0.005804
