152
# total energy = -1109.92888333 eVH     10.35389      5.87395      7.64558        -0.384082     -0.524243      1.240277
H     10.62451     15.10445      7.64558         0.364092      0.071895      0.901824
H     10.62451      5.87395     13.33282        -0.132256     -1.207668     -1.685812
H     10.35389     15.10445     13.33282        -0.615387      0.477681     -0.491027
H      7.64558     10.35389      5.87395         0.483353     -0.530925      0.004569
H      7.64558     10.62451     15.10445         0.333985     -0.284164      0.063313
H     13.33282     10.62451      5.87395        -0.354736      0.339223      0.014462
H     13.33282     10.35389     15.10445        -0.456241      0.285458      0.117214
H      5.87395      7.64558     10.35389         0.052392      0.365349      0.035410
H     15.10445      7.64558     10.62451         0.325332      0.365835      0.131710
H      5.87395     13.33282     10.62451        -0.294272     -0.416145      0.410780
H     15.10445     13.33282     10.35389         0.052325     -0.352992     -0.417138
H      5.87395     10.35389      7.64558        -0.127842     -0.318468      1.603837
H     15.10445     10.62451      7.64558         0.111258      0.094071      0.936511
H      5.87395     10.62451     13.33282        -0.099603     -0.298790     -1.124960
H     15.10445     10.35389     13.33282         0.357308      0.548656     -1.228645
H     10.35389      7.64558      5.87395        -0.447189      0.575389     -0.349021
H     10.62451      7.64558     15.10445        -0.040302      0.739193      0.305826
H     10.62451     13.33282      5.87395         0.882168     -1.326364     -0.325332
H     10.35389     13.33282     15.10445         0.283922     -0.506021      0.002213
H      7.64558      5.87395     10.35389         0.944420      0.101426     -0.127719
H      7.64558     15.10445     10.62451         2.078467      0.793794      0.268625
H     13.33282      5.87395     10.62451        -2.343609     -0.905437      0.163323
H     13.33282     15.10445     10.35389        -0.851993     -0.046471     -0.254867
H     12.45634     12.45634     19.01126         0.269434      0.258705     -0.231543
H     19.01126     19.01126     19.01126        -0.267545     -0.251133     -0.239427
H     19.01126     12.45634     12.45634        -0.278444      0.290501      0.184704
H     12.45634     19.01126     12.45634         0.257544     -0.251252      0.237973
C     10.35284      5.61067      6.59456         0.157750     -0.363580     -1.687986
C     10.62556     15.36773      6.59456         0.157848      0.610936     -0.836286
C     10.62556      5.61067     14.38384         0.039525     -0.223456      2.121648
C     10.35284     15.36773     14.38384         0.158467      0.160638      1.855991
C      6.59456     10.35284      5.61067        -1.176483     -0.187970     -0.971997
C      6.59456     10.62556     15.36773        -0.609099     -0.139461      0.658598
C     14.38384     10.62556      5.61067         0.682199     -0.125780     -0.748992
C     14.38384     10.35284     15.36773         1.108504      0.142272      0.914927
C      5.61067      6.59456     10.35284        -0.895943     -0.673626     -0.127311
C     15.36773      6.59456     10.62556         1.890496     -0.020193     -0.003410
C      5.61067     14.38384     10.62556        -1.500072      0.186569      0.012681
C     15.36773     14.38384     10.35284         0.493058      0.216627     -0.000059
C      5.61067     10.35284      6.59456        -0.342012      0.312104     -1.774755
C     15.36773     10.62556      6.59456         0.307740      0.033603     -0.898277
C      5.61067     10.62556     14.38384        -0.388618      0.242661      1.523110
C     15.36773     10.35284     14.38384         0.151312     -0.357339      1.719686
C     10.35284      6.59456      5.61067        -0.244233     -1.339801     -1.036775
C     10.62556      6.59456     15.36773        -0.055557     -1.111712      1.208801
C     10.62556     14.38384      5.61067        -0.465773      2.058113     -0.685343
C     10.35284     14.38384     15.36773        -0.248013      1.599324      0.366497
C      6.59456      5.61067     10.35284        -1.029820     -0.309775      0.065468
C      6.59456     15.36773     10.62556        -1.540422      0.274716     -0.355004
C     14.38384      5.61067     10.62556         1.321528     -0.354158     -0.150732
C     14.38384     15.36773     10.35284         0.361268      0.231501      0.062195
C     10.40319      3.19606      7.29314         0.024312      0.300941     -0.125920
C     10.35913      4.25547      6.23373         0.105358     -0.398954      0.242321
C      0.08601      7.29314      7.29314        -0.052824     -0.367289     -0.439213
C      0.13007      6.23373      6.23373        -0.148591      0.835005      0.053677
C      0.08601      3.19606      3.19606        -0.122360      1.542537      0.169519
C      0.13007      4.25547      4.25547        -0.159404     -0.414268     -1.362544
C     10.40319      7.29314      3.19606         0.036837     -0.457299      0.086792
C     10.35913      6.23373      4.25547         0.218132      0.183981     -0.384058
C      7.29314     10.40319      3.19606        -1.750689      0.023314      0.240956
C      6.23373     10.35913      4.25547         0.512958      0.040971     -0.520780
C      7.29314      0.08601      7.29314        -0.371900      0.015133     -0.267204
C      6.23373      0.13007      6.23373         0.346841      0.024929      0.352007
C      3.19606      0.08601      3.19606         0.614438      0.014139      0.314449
C      4.25547      0.13007      4.25547        -0.418853      0.021387     -0.395998
C      3.19606     10.40319      7.29314         0.383697      0.049364     -0.412375
C      4.25547     10.35913      6.23373        -0.674714      0.092291      0.425987
C      3.19606      7.29314     10.40319         0.370122     -0.339698     -0.001950
C      4.25547      6.23373     10.35913         0.003554      0.669609      0.108304
C      7.29314      7.29314      0.08601        -0.680029     -0.444518     -0.030369
C      6.23373      6.23373      0.13007         0.248262      1.302002      0.003192
C      3.19606      3.19606      0.08601         0.773047      0.428653     -0.013430
C      4.25547      4.25547      0.13007        -0.505034     -1.386440     -0.085914
C      7.29314      3.19606     10.40319        -0.359672      0.320616      0.003884
C      6.23373      4.25547     10.35913         0.572540     -0.206036      0.233262
O     10.43466      3.58206      8.50569        -0.045277      0.192282      0.285504
O     10.54374     17.39634      8.50569         0.043717     -0.212863      0.480537
O     10.54374      3.58206     12.47271         0.096915     -0.019342     -0.077906
O     10.43466     17.39634     12.47271        -0.037697     -0.102370     -0.231043
O      8.50569     10.43466      3.58206         0.923089      0.186156      0.400245
O      8.50569     10.54374     17.39634         0.551211      0.071360     -0.209222
O     12.47271     10.54374      3.58206        -0.494271     -0.010761      0.179595
O     12.47271     10.43466     17.39634        -0.521196     -0.069954     -0.187688
O      3.58206      8.50569     10.43466         0.164073      0.517152     -0.045998
O     17.39634      8.50569     10.54374        -0.183173      0.660030      0.046101
O      3.58206     12.47271     10.54374         0.150992     -0.614391      0.027973
O     17.39634     12.47271     10.43466        -0.176114     -0.528495     -0.012495
O      3.58206     10.43466      8.50569         0.220443     -0.084355      0.441779
O     17.39634     10.54374      8.50569        -0.157544      0.030890      0.427861
O      3.58206     10.54374     12.47271         0.152009     -0.003143     -0.394438
O     17.39634     10.43466     12.47271         0.083499     -0.062442     -0.047665
O     10.43466      8.50569      3.58206        -0.003512      0.353381      0.183349
O     10.54374      8.50569     17.39634         0.075353      0.472985     -0.203384
O     10.54374     12.47271      3.58206        -0.225945     -0.920163      0.341523
O     10.43466     12.47271     17.39634        -0.077522     -0.436074     -0.236630
O      8.50569      3.58206     10.43466         0.507133      0.188708     -0.018397
O      8.50569     17.39634     10.54374         0.610179     -0.198757      0.037444
O     12.47271      3.58206     10.54374        -0.707776      0.276158      0.043130
O     12.47271     17.39634     10.43466        -0.482718     -0.183416     -0.039310
O     11.90042     11.90042     19.56718        -0.331589     -0.305802      0.261889
O     19.56718     19.56718     19.56718         0.330618      0.305426      0.286874
O     19.56718     11.90042     11.90042         0.273977     -0.294773     -0.130208
O     11.90042     19.56718     11.90042        -0.318092      0.296719     -0.239392
O      9.45224      1.03696      9.45224        -0.051380      0.070038     -0.038967
O      1.03696      9.45224      9.45224         0.040192     -0.067080     -0.069577
O      1.03696      1.03696      1.03696         0.041889      0.118135      0.123135
O      9.45224      9.45224      1.03696        -0.115874     -0.065991      0.138057
Zr     10.48920      2.52580     10.48920         0.094032     -0.147632     -0.162133
Zr     10.48920     18.45260     10.48920        -0.042241      0.165698     -0.031822
Zr     10.48920     10.48920      2.52580         0.440628     -0.283853     -0.251189
Zr     10.48920     10.48920     18.45260        -0.028020     -0.062895      0.195738
Zr      2.52580     10.48920     10.48920        -0.063851      0.124918     -0.024359
Zr     18.45260     10.48920     10.48920         0.122623     -0.112830     -0.310417
Ir     12.01289     12.42377     10.44913         0.029443     -0.000945     -0.002011
Ir     10.77893      7.35432     10.42157         0.112827      0.007980      0.005941
Ir      8.44859      7.47303     11.67999         0.086439     -0.000842     -0.027595
Ir      7.33974     11.77416      7.70842         0.089887     -0.001468     -0.045647
Ir     11.47606     12.06643      7.14367         0.057580      0.043791      0.013351
Ir     13.38599      8.82955      7.58863         0.139022      0.066554     -0.042116
Ir     12.46623     13.89778      8.42962         0.052480     -0.020720     -0.008878
Ir      9.57841     11.30233      5.58358        -0.018220      0.028153      0.018873
Ir      9.05078     13.48387      7.08315         0.011081      0.062842      0.016048
Ir      9.08303      9.70759      7.60122         0.038730     -0.034749      0.000038
Ir     12.98407      7.12974     11.90262         0.060783     -0.100650      0.021563
Ir     13.11678      6.92705      9.15376         0.149570     -0.010702     -0.037816
Ir     10.71233      7.57961     12.93847         0.059548      0.016244     -0.001802
Ir     13.50424     11.43918      8.69912         0.039134      0.005293      0.015909
Ir     11.29657      9.66326      6.27721         0.072308     -0.007469     -0.043206
Ir      6.84346      9.40280      9.06819         0.089279     -0.067667     -0.052858
Ir     14.11569     11.39375     11.47788        -0.056432     -0.074046      0.035065
Ir     11.43224      9.87937      8.95900         0.070681      0.056636      0.011869
Ir      9.16336      9.58295     10.29578         0.077642     -0.003951     -0.013351
Ir     13.63049      9.28944     10.16606         0.003614     -0.011761     -0.006846
Ir     13.62534      9.26862     12.84301         0.024280     -0.092780      0.022013
Ir     11.43159      9.66321     11.59754         0.038138      0.048777     -0.041150
Ir      9.78787     11.81889      9.02114         0.007456      0.043964     -0.001671
Ir      8.60291      7.51053      8.93219         0.151388     -0.026553     -0.014841
Ir     11.01425      7.63419      7.91728         0.115647     -0.036096     -0.021585
Ir      9.02876      9.56517     13.05031         0.056232      0.018909     -0.023065
Ir      7.56066     14.04724      9.00418         0.009400     -0.021035     -0.010604
Ir     10.94512     14.01444     12.03634         0.057121      0.040240     -0.053710
Ir     10.14214     14.21618      9.58054         0.015620      0.002250     -0.031320
Ir      9.72715     11.71086     11.73563         0.002096      0.000094     -0.001001
Ir      7.48871     11.74864     10.27985         0.025145     -0.024308     -0.027007
Ir      8.42007     13.86384     11.65750        -0.005307     -0.002610     -0.014228
Ir      7.49458     11.80431     12.94203         0.010154     -0.015547     -0.050901
Ir      9.79939     11.66365     14.32519        -0.031564      0.015670     -0.013094
Ir     13.50293     13.80889     12.15399         0.027397     -0.062479     -0.015005
Ir     12.07513     11.88385     13.03927        -0.029338      0.090765     -0.023184
Ir     11.43410      9.73603     14.24500         0.027639      0.043154     -0.002447
Ir      6.88766      9.61267     11.60725         0.072144     -0.017272     -0.046579
