152
# total energy = -1022.84800672 eVH     10.35389      5.87395      7.64558         0.480670      0.031011      0.903362
H     10.62451     15.10445      7.64558        -0.046607      0.049839      0.775128
H     10.62451      5.87395     13.33282         0.144395      0.115254     -0.605945
H     10.35389     15.10445     13.33282        -0.258752     -0.079978     -0.559595
H      7.64558     10.35389      5.87395         0.330795     -0.036402      0.189981
H      7.64558     10.62451     15.10445         0.615507     -0.190419     -0.144711
H     13.33282     10.62451      5.87395        -0.857405     -0.320557      0.167569
H     13.33282     10.35389     15.10445        -0.448261     -0.077516     -0.071075
H      5.87395      7.64558     10.35389         0.127560      1.127021     -0.152498
H     15.10445      7.64558     10.62451        -0.170469      0.403198     -0.087526
H      5.87395     13.33282     10.62451         0.142546     -0.405434     -0.072075
H     15.10445     13.33282     10.35389        -0.079330     -0.969649     -0.188144
H      5.87395     10.35389      7.64558         0.126457      0.037625      0.478828
H     15.10445     10.62451      7.64558         0.124105     -0.212104      0.815452
H      5.87395     10.62451     13.33282         0.270098     -0.026367     -0.393827
H     15.10445     10.35389     13.33282        -0.155791      0.015705     -0.608803
H     10.35389      7.64558      5.87395         0.066062      0.847700      0.118856
H     10.62451      7.64558     15.10445         0.020977      0.573288     -0.142319
H     10.62451     13.33282      5.87395         0.063603     -0.601509      0.177703
H     10.35389     13.33282     15.10445        -0.250147     -0.893091     -0.109976
H      7.64558      5.87395     10.35389         0.524822      0.041111     -0.133044
H      7.64558     15.10445     10.62451         0.919703     -0.203222      0.295900
H     13.33282      5.87395     10.62451        -0.437178      0.187286     -0.058867
H     13.33282     15.10445     10.35389        -0.998696     -0.100138      0.269310
H     12.45634     12.45634     19.01126         0.266702      0.256933     -0.224991
H     19.01126     19.01126     19.01126        -0.247631     -0.235495     -0.262157
H     19.01126     12.45634     12.45634        -0.241003      0.269996      0.239407
H     12.45634     19.01126     12.45634         0.210797     -0.283198      0.252773
C     10.35284      5.61067      6.59456        -0.129515     -0.433076     -0.400837
C     10.62556     15.36773      6.59456         0.021155      0.346600     -1.161202
C     10.62556      5.61067     14.38384        -0.030097     -0.224634      0.727059
C     10.35284     15.36773     14.38384         0.178096      0.771912      0.153378
C      6.59456     10.35284      5.61067        -0.410710     -0.040782     -0.180209
C      6.59456     10.62556     15.36773        -0.781513      0.150688      0.348485
C     14.38384     10.62556      5.61067         0.622074      0.287952     -0.367281
C     14.38384     10.35284     15.36773         0.720363     -0.118651      0.419141
C      5.61067      6.59456     10.35284        -0.428530     -0.756365      0.280389
C     15.36773      6.59456     10.62556         0.198443     -0.466963      0.047883
C      5.61067     14.38384     10.62556        -0.257875      0.373170     -0.023460
C     15.36773     14.38384     10.35284         0.394660      0.148130      0.194868
C      5.61067     10.35284      6.59456        -0.311471     -0.014246     -0.891895
C     15.36773     10.62556      6.59456         0.575619     -0.159325     -1.235966
C      5.61067     10.62556     14.38384        -0.460007      0.008402      0.902050
C     15.36773     10.35284     14.38384         0.517815     -0.175254      1.241693
C     10.35284      6.59456      5.61067        -0.039037     -0.905382     -0.668731
C     10.62556      6.59456     15.36773         0.047882     -0.689498      0.298197
C     10.62556     14.38384      5.61067         0.043054      1.245451     -0.694742
C     10.35284     14.38384     15.36773         0.106504      0.609004      0.652030
C      6.59456      5.61067     10.35284        -0.215766     -0.902060      0.132245
C      6.59456     15.36773     10.62556        -1.730587      0.494052      0.042919
C     14.38384      5.61067     10.62556         0.583289     -0.228533     -0.008557
C     14.38384     15.36773     10.35284         0.158722      0.557239     -0.237999
C     10.40319      3.19606      7.29314         0.014869      0.899365     -0.251325
C     10.35913      4.25547      6.23373        -0.051386     -0.371909      0.607335
C      0.08601      7.29314      7.29314        -0.008734     -0.236965     -0.466223
C      0.13007      6.23373      6.23373         0.003949      0.123852      0.211876
C      0.08601      3.19606      3.19606        -0.016673      0.634733      0.181626
C      0.13007      4.25547      4.25547        -0.091512     -0.199744     -0.166935
C     10.40319      7.29314      3.19606        -0.002539     -0.687592      0.530187
C     10.35913      6.23373      4.25547        -0.008272      0.504909     -0.401004
C      7.29314     10.40319      3.19606        -0.338808      0.022575      0.859687
C      6.23373     10.35913      4.25547         0.206857      0.011107     -0.142697
C      7.29314      0.08601      7.29314        -0.307415     -0.046393     -0.271808
C      6.23373      0.13007      6.23373         0.268494     -0.058375      0.292493
C      3.19606      0.08601      3.19606         0.431827     -0.052094      1.300286
C      4.25547      0.13007      4.25547        -0.116543     -0.028151     -0.461974
C      3.19606     10.40319      7.29314         0.699099      0.014593     -0.265134
C      4.25547     10.35913      6.23373        -0.132717      0.029041      0.101706
C      3.19606      7.29314     10.40319         0.608521     -1.271751      0.025591
C      4.25547      6.23373     10.35913        -0.725654      0.835892      0.044910
C      7.29314      7.29314      0.08601        -0.652418     -0.170230     -0.022402
C      6.23373      6.23373      0.13007         0.170883      0.273005     -0.008874
C      3.19606      3.19606      0.08601         0.240941      0.249776     -0.019728
C      4.25547      4.25547      0.13007        -0.054300     -0.036821      0.012427
C      7.29314      3.19606     10.40319        -0.372345      0.796103      0.015630
C      6.23373      4.25547     10.35913         0.879793     -0.159656      0.008665
O     10.43466      3.58206      8.50569        -0.049190      0.034354      0.321468
O     10.54374     17.39634      8.50569        -0.023766     -0.182444      0.600132
O     10.54374      3.58206     12.47271         0.054812      0.064569     -0.326067
O     10.43466     17.39634     12.47271        -0.022745     -0.126906     -0.584610
O      8.50569     10.43466      3.58206         0.380396     -0.025483     -0.014231
O      8.50569     10.54374     17.39634         0.469833      0.053104     -0.143582
O     12.47271     10.54374      3.58206        -0.281642      0.049171     -0.076531
O     12.47271     10.43466     17.39634        -0.850189      0.019910     -0.223776
O      3.58206      8.50569     10.43466         0.041359      0.921432      0.040810
O     17.39634      8.50569     10.54374        -0.040922      0.339312      0.077631
O      3.58206     12.47271     10.54374         0.065003     -0.421142      0.064168
O     17.39634     12.47271     10.43466        -0.170439     -0.779784      0.019389
O      3.58206     10.43466      8.50569        -0.054668     -0.066289      0.229864
O     17.39634     10.54374      8.50569        -0.136903      0.042474      0.458862
O      3.58206     10.54374     12.47271        -0.017032     -0.052871     -0.891857
O     17.39634     10.43466     12.47271        -0.198265      0.043244     -0.768062
O     10.43466      8.50569      3.58206         0.043848      0.677312      0.189657
O     10.54374      8.50569     17.39634         0.053145      0.432729     -0.081152
O     10.54374     12.47271      3.58206        -0.006351     -0.723621      0.225478
O     10.43466     12.47271     17.39634         0.046668     -0.846305     -0.273476
O      8.50569      3.58206     10.43466         0.491659      0.074735     -0.038655
O      8.50569     17.39634     10.54374         0.651164     -0.251186     -0.060062
O     12.47271      3.58206     10.54374        -0.485311      0.163590      0.039694
O     12.47271     17.39634     10.43466        -0.532410     -0.037993     -0.029844
O     11.90042     11.90042     19.56718        -0.304690     -0.312737      0.264945
O     19.56718     19.56718     19.56718         0.286865      0.271839      0.320534
O     19.56718     11.90042     11.90042         0.279485     -0.330978     -0.245551
O     11.90042     19.56718     11.90042        -0.228156      0.290236     -0.240979
O      9.45224      1.03696      9.45224        -0.074793      0.047053     -0.067031
O      1.03696      9.45224      9.45224         0.055655     -0.144313     -0.056799
O      1.03696      1.03696      1.03696         0.044616      0.031656      0.186170
O      9.45224      9.45224      1.03696        -0.040393     -0.092260      0.121474
Zr     10.48920      2.52580     10.48920        -0.007982     -0.072679     -0.023038
Zr     10.48920     18.45260     10.48920         0.056031      0.305571     -0.073833
Zr     10.48920     10.48920      2.52580        -0.104680      0.016944     -0.368423
Zr     10.48920     10.48920     18.45260        -0.131253     -0.153095      0.325986
Zr      2.52580     10.48920     10.48920        -0.349081      0.318010     -0.467793
Zr     18.45260     10.48920     10.48920         0.244260      0.036488     -0.261538
Pd      9.04371     10.25920     13.32664        -0.010013     -0.016496      0.009472
Pd     10.58805      9.72936     10.99140        -0.022955     -0.012552     -0.045481
Pd     13.76081      8.53623     12.68559         0.014921      0.002943     -0.002940
Pd     11.00017     11.07512     15.01453         0.000712     -0.018992      0.002783
Pd     12.84318     11.16955     13.00430         0.033078      0.014017      0.016277
Pd     14.98022     10.93698     11.34565         0.011991      0.006811     -0.009246
Pd      6.64640      7.43672     12.34227         0.003530      0.018352     -0.000061
Pd      9.22958      7.26023     10.12216         0.004410      0.016060     -0.027177
Pd      9.26032      7.60182     12.79779         0.018886     -0.001011     -0.021427
Pd     11.69407      7.28446     11.46468         0.008774      0.004278     -0.007369
Pd     11.40077      7.99613      8.86471         0.027138     -0.006121     -0.014576
Pd      7.26262     11.83260     11.95529         0.005118      0.004629     -0.010555
Pd      8.89545     14.67114      9.33039         0.038046      0.018668      0.018842
Pd      8.42007     12.65402     14.32174        -0.012813     -0.008642     -0.002127
Pd     13.52634     14.09297      8.56386         0.077277      0.025084     -0.048313
Pd     10.97971     13.33910      8.51401         0.078524      0.033455      0.036579
Pd     14.09352     11.52206      8.92788        -0.001132      0.022250     -0.005165
Pd      8.61631     14.10772     12.10200         0.013703     -0.007846     -0.000052
Pd     12.24333     13.72697     14.02399        -0.001638     -0.006182      0.007205
Pd     11.14921     14.44139     11.14808         0.028718     -0.015453      0.041474
Pd     14.06258     13.54555     12.17700        -0.012303      0.012048     -0.005670
Pd     12.31229     12.16581     10.66649        -0.003953     -0.037497      0.018560
Pd     12.67190     12.32980      6.72056         0.008672      0.031987     -0.014156
Pd     13.66060      8.94068      7.92512         0.033651      0.006983      0.006833
Pd      6.86100      8.45938      8.85205         0.013650      0.012478     -0.006775
Pd      5.52886      9.93075     11.27004        -0.003981      0.031212     -0.051449
Pd      9.14839      9.73997      8.31450         0.022113     -0.010386     -0.017216
Pd      8.81332      7.23267      7.46357        -0.009692     -0.000745     -0.032014
Pd      9.52516     12.08392     10.42006         0.028965      0.000244      0.020022
Pd     11.53576     10.71037      8.57808         0.021064      0.012256     -0.037329
Pd     11.24532      9.23825      6.44347         0.036621     -0.021811     -0.010469
Pd      9.90928     11.55404      6.39372         0.017880     -0.027813     -0.021148
Ir     11.35002      9.09168     13.36842        -0.009726      0.017528     -0.035904
Ir     13.07434      9.48335     10.39739         0.016007      0.014480     -0.009786
Ir     10.53134     12.36211     12.70582        -0.013116     -0.029681     -0.001904
Ir      7.14095     10.97454      9.50748         0.058496      0.024206     -0.042431
Ir      8.39740     12.45622      8.18576         0.057448      0.005632     -0.017143
Ir      8.06762      9.29505     11.11567         0.005968     -0.002014     -0.002018
