152
# total energy = -1060.15485542 eVH     10.35389      5.87395      7.64558        -0.316226      0.100528      1.086723
H     10.62451     15.10445      7.64558         0.082444     -0.070923      0.897758
H     10.62451      5.87395     13.33282        -0.268692      0.072811     -0.781744
H     10.35389     15.10445     13.33282         0.094047     -0.303266     -0.820138
H      7.64558     10.35389      5.87395         0.893069     -0.200079      0.208033
H      7.64558     10.62451     15.10445         0.316213     -0.029256     -0.060966
H     13.33282     10.62451      5.87395        -0.885202      0.217914      0.219449
H     13.33282     10.35389     15.10445        -0.281709     -0.029072     -0.061490
H      5.87395      7.64558     10.35389         0.094037      0.419636     -0.013350
H     15.10445      7.64558     10.62451        -0.042106      0.439937     -0.027339
H      5.87395     13.33282     10.62451        -0.019879     -0.969045      0.076465
H     15.10445     13.33282     10.35389        -0.084214     -0.325236      0.002755
H      5.87395     10.35389      7.64558         0.319691      0.061754      0.370219
H     15.10445     10.62451      7.64558        -0.120433     -0.159644      0.665615
H      5.87395     10.62451     13.33282        -0.061139      0.450430     -0.598534
H     15.10445     10.35389     13.33282         0.224838     -0.635801     -0.872033
H     10.35389      7.64558      5.87395        -0.019747      0.500489      0.345280
H     10.62451      7.64558     15.10445         0.337757      0.791421     -0.003595
H     10.62451     13.33282      5.87395         0.151492     -0.569381      0.202353
H     10.35389     13.33282     15.10445         0.036500     -0.289201     -0.167238
H      7.64558      5.87395     10.35389         0.370902      0.114535      0.063413
H      7.64558     15.10445     10.62451         0.386960     -0.127390      0.179930
H     13.33282      5.87395     10.62451        -0.306453      0.136762     -0.013754
H     13.33282     15.10445     10.35389        -0.656709     -0.108229      0.137879
H     12.45634     12.45634     19.01126         0.259166      0.272098     -0.226460
H     19.01126     19.01126     19.01126        -0.247793     -0.267572     -0.244355
H     19.01126     12.45634     12.45634        -0.249026      0.271385      0.236966
H     12.45634     19.01126     12.45634         0.289989     -0.235178      0.235467
C     10.35284      5.61067      6.59456         0.403501     -0.421480     -1.359978
C     10.62556     15.36773      6.59456        -0.170240      0.611151     -0.663805
C     10.62556      5.61067     14.38384         0.365966     -0.276442      0.774276
C     10.35284     15.36773     14.38384        -0.204693      0.215791      1.019539
C      6.59456     10.35284      5.61067        -1.390112      0.030183     -0.226619
C      6.59456     10.62556     15.36773        -0.668326      0.064788      0.356028
C     14.38384     10.62556      5.61067         1.310032     -0.186397     -0.628918
C     14.38384     10.35284     15.36773         0.317297     -0.131124      0.349863
C      5.61067      6.59456     10.35284        -0.274230     -0.671129     -0.029594
C     15.36773      6.59456     10.62556         0.409634     -0.860863      0.026713
C      5.61067     14.38384     10.62556        -0.147315      1.195992     -0.218595
C     15.36773     14.38384     10.35284         0.503296      0.702493     -0.037316
C      5.61067     10.35284      6.59456        -0.373631     -0.102964     -0.784410
C     15.36773     10.62556      6.59456         0.401457      0.107862     -0.680903
C      5.61067     10.62556     14.38384        -0.411768     -0.162458      1.217471
C     15.36773     10.35284     14.38384         0.234421      0.225570      1.414146
C     10.35284      6.59456      5.61067        -0.069886     -0.745924     -0.546877
C     10.62556      6.59456     15.36773        -0.143551     -0.985207      0.376201
C     10.62556     14.38384      5.61067        -0.494196      0.381098     -0.739078
C     10.35284     14.38384     15.36773        -0.175374      0.747845      0.498955
C      6.59456      5.61067     10.35284        -0.561176     -0.334531      0.003920
C      6.59456     15.36773     10.62556        -0.360904      0.446700      0.065163
C     14.38384      5.61067     10.62556         0.433484     -0.312356      0.008313
C     14.38384     15.36773     10.35284         1.130394      0.488318     -0.078466
C     10.40319      3.19606      7.29314        -0.006966      0.775635     -0.335203
C     10.35913      4.25547      6.23373         0.022419     -0.381027      0.291049
C      0.08601      7.29314      7.29314        -0.018512     -0.379090     -0.506478
C      0.13007      6.23373      6.23373        -0.047012      0.882044      0.093921
C      0.08601      3.19606      3.19606        -0.007231      0.694051      0.260011
C      0.13007      4.25547      4.25547         0.046038     -0.265887     -0.547471
C     10.40319      7.29314      3.19606        -0.063829     -1.113258      0.620744
C     10.35913      6.23373      4.25547        -0.046956      0.346171     -0.201518
C      7.29314     10.40319      3.19606        -1.091044     -0.054696      0.201654
C      6.23373     10.35913      4.25547         0.378159      0.101514     -0.519334
C      7.29314      0.08601      7.29314        -0.476560      0.028924     -0.444719
C      6.23373      0.13007      6.23373         0.181418      0.122448      0.121000
C      3.19606      0.08601      3.19606         0.697906      0.022806      0.172906
C      4.25547      0.13007      4.25547        -0.172491     -0.051081     -0.363803
C      3.19606     10.40319      7.29314         0.365807     -0.026426     -0.951482
C      4.25547     10.35913      6.23373        -0.127946     -0.055045      0.114261
C      3.19606      7.29314     10.40319         0.617307     -0.400331      0.002564
C      4.25547      6.23373     10.35913        -0.115343      0.176570      0.011216
C      7.29314      7.29314      0.08601        -0.428926     -0.296282     -0.015164
C      6.23373      6.23373      0.13007         0.151627      0.153935     -0.064113
C      3.19606      3.19606      0.08601         0.294358      0.492774     -0.024823
C      4.25547      4.25547      0.13007        -0.405475     -0.241140     -0.030851
C      7.29314      3.19606     10.40319        -0.284360      0.595138     -0.009882
C      6.23373      4.25547     10.35913         0.015821     -0.093215      0.014606
O     10.43466      3.58206      8.50569        -0.026363      0.075192      0.304721
O     10.54374     17.39634      8.50569         0.064276     -0.123810      0.592967
O     10.54374      3.58206     12.47271         0.029410      0.102087     -0.398541
O     10.43466     17.39634     12.47271         0.094674     -0.063735     -0.434308
O      8.50569     10.43466      3.58206         0.733475     -0.072321      0.015822
O      8.50569     10.54374     17.39634         0.535077      0.061595     -0.106742
O     12.47271     10.54374      3.58206        -0.653359      0.113193      0.209362
O     12.47271     10.43466     17.39634        -0.279959      0.004285      0.034910
O      3.58206      8.50569     10.43466         0.034020      0.444920     -0.063003
O     17.39634      8.50569     10.54374        -0.053391      0.446275      0.056503
O      3.58206     12.47271     10.54374         0.104571     -0.588363      0.004073
O     17.39634     12.47271     10.43466        -0.180969     -0.742049     -0.049177
O      3.58206     10.43466      8.50569         0.209287     -0.061095      0.808118
O     17.39634     10.54374      8.50569        -0.071496      0.071954      0.491524
O      3.58206     10.54374     12.47271        -0.002121     -0.005725     -0.264246
O     17.39634     10.43466     12.47271         0.034634     -0.010071     -0.234257
O     10.43466      8.50569      3.58206        -0.108245      0.532595     -0.100866
O     10.54374      8.50569     17.39634         0.058849      0.511192     -0.087125
O     10.54374     12.47271      3.58206         0.102848     -0.636744      0.129210
O     10.43466     12.47271     17.39634        -0.066331     -0.689854     -0.276143
O      8.50569      3.58206     10.43466         0.397106      0.022538     -0.046284
O      8.50569     17.39634     10.54374         0.641741     -0.154159      0.045977
O     12.47271      3.58206     10.54374        -0.517362      0.121375      0.028535
O     12.47271     17.39634     10.43466        -0.625134     -0.124392      0.041170
O     11.90042     11.90042     19.56718        -0.278647     -0.304392      0.222771
O     19.56718     19.56718     19.56718         0.310059      0.322396      0.297497
O     19.56718     11.90042     11.90042         0.283942     -0.325252     -0.235987
O     11.90042     19.56718     11.90042        -0.314105      0.229012     -0.201892
O      9.45224      1.03696      9.45224        -0.073621      0.086594     -0.080655
O      1.03696      9.45224      9.45224         0.100631     -0.108282     -0.062235
O      1.03696      1.03696      1.03696         0.079761      0.053932      0.097554
O      9.45224      9.45224      1.03696        -0.058489     -0.126028      0.135741
Zr     10.48920      2.52580     10.48920         0.044053     -0.094034      0.122385
Zr     10.48920     18.45260     10.48920        -0.183696      0.246758     -0.359554
Zr     10.48920     10.48920      2.52580         0.112222      0.357869     -0.343728
Zr     10.48920     10.48920     18.45260        -0.078372     -0.259647      0.235088
Zr      2.52580     10.48920     10.48920        -0.240145      0.132161      0.244546
Zr     18.45260     10.48920     10.48920         0.196211     -0.138526     -0.019075
Pd      9.36179     14.30306      9.31082         0.001578      0.030965     -0.033196
Pd      8.58981     13.63603     13.05197         0.010504     -0.007484      0.025922
Pd     12.02507     14.40644      8.74416         0.011332     -0.005777      0.009744
Pd     12.75312     12.87540     10.67907        -0.045361     -0.009386      0.026438
Pd     12.12036      7.19289     12.67600         0.003518      0.001103     -0.002465
Pd     11.15956     14.90367     11.45244        -0.022559      0.028455     -0.020857
Pd     10.03080     12.55737     11.08680        -0.031876      0.038416     -0.012480
Pd     13.48294     12.15687      7.98345         0.008124      0.008367      0.012295
Pd     11.48057     11.54434      6.10994         0.008209      0.015297     -0.000957
Pd      7.94263      8.37521      7.52343        -0.001496     -0.034497     -0.008084
Pd      8.72161     11.75774      6.84599        -0.004366      0.007277      0.015350
Pd     10.31861      9.45494      8.15244        -0.019604     -0.002166      0.014982
Pd      8.49668     14.46473      6.78940        -0.010287      0.004686     -0.023492
Pd     12.39562      9.02176      6.57511        -0.014891      0.028591      0.035902
Pd      9.71935      9.61032      5.57377         0.009406      0.005418      0.003044
Pd      6.81319      9.45070     12.13737         0.020591      0.004745      0.002159
Pd     12.17951      6.74258      7.95303         0.011910      0.002364      0.003121
Pd      5.91512     10.48312      9.68955        -0.003124     -0.002656      0.005144
Pd      7.55015      7.23893     13.40494        -0.002280     -0.011266     -0.013756
Ir     11.73587      9.77756     13.06748        -0.013618     -0.018363     -0.010006
Ir     13.55306      9.05798     11.47688        -0.020245      0.004198      0.027593
Ir      9.42581      8.86188     14.01018        -0.019892     -0.002869      0.006790
Ir     10.50170     11.02448     14.88041        -0.004414     -0.039389      0.066706
Ir      7.26688     12.01593     11.34093         0.014058     -0.010122      0.008785
Ir     14.65267     10.91052     10.15159        -0.002071      0.030305      0.028710
Ir     12.16828     10.56721      9.67281        -0.011294      0.005717     -0.012918
Ir      8.74223     10.99523     12.98860         0.012983      0.025851     -0.020296
Ir     10.10850      9.91995     11.17293         0.002945      0.006448     -0.011253
Ir     13.73828     11.42006     12.48684        -0.039417      0.003662      0.044446
Ir     11.59140     12.35705     13.08467        -0.072306     -0.025277      0.009939
Ir      8.49971     11.09940      9.33621        -0.024099      0.038805     -0.007021
Ir     11.59466      8.02797     10.14320        -0.006831     -0.012158      0.008459
Ir      7.21849     13.03370      8.65688         0.011668     -0.003230      0.016263
Ir      9.54910      6.96201      9.23991         0.009346      0.010676      0.014367
Ir      8.05513      8.76612     10.05693         0.001946     -0.021123     -0.000107
Ir     10.72423     12.12317      8.50555         0.002825      0.000655     -0.001172
Ir      9.51545      7.57487     11.75587         0.003366      0.012080     -0.013627
Ir     13.67221      8.79152      8.84447         0.030616     -0.007642      0.008439
