32
# total energy = -214.27874767 eVH      3.81223     -0.83845     10.00000         0.000656      0.002083      0.000000
H      6.39024      6.72885     10.00000        -0.000656     -0.002083      0.000000
H      9.02247     -2.16969     10.00000        -0.002510     -0.001419      0.000000
H      1.18000      8.06009     10.00000         0.002510      0.001419      0.000000
H      7.57025      3.00813     10.00000         0.002371     -0.001714     -0.000000
H      2.63222      2.88227     10.00000        -0.002371      0.001714      0.000000
H      1.18009      3.72068     10.00000         0.001681      0.000686      0.000000
H      9.02238      2.16972     10.00000        -0.001681     -0.000686     -0.000000
H      2.63221      8.89842     10.00000        -0.002262     -0.001333      0.000000
H      7.57026     -3.00802     10.00000         0.002262      0.001333      0.000000
H      6.39024      5.05197     10.00000        -0.000344      0.002975     -0.000000
H      3.81223      0.83843     10.00000         0.000344     -0.002975     -0.000000
C      4.41447     -1.74250     10.00000        -0.003770      0.002675      0.000000
C      5.78800      7.63290     10.00000         0.003770     -0.002675      0.000000
C      9.50430     -1.19616     10.00000        -0.001283      0.000630     -0.000000
C      0.69817      7.08656     10.00000         0.001283     -0.000630     -0.000000
C      6.48623      2.93858     10.00000         0.000269      0.002819     -0.000000
C      3.71624      2.95182     10.00000        -0.000269     -0.002819     -0.000000
C      0.69825      4.69428     10.00000        -0.000012     -0.004849      0.000000
C      9.50422      1.19612     10.00000         0.000012      0.004849      0.000000
C      3.71624      8.82898     10.00000        -0.000616     -0.001026      0.000000
C      6.48623     -2.93858     10.00000         0.000616      0.001026     -0.000000
C      5.78800      4.14796     10.00000         0.002472     -0.001087     -0.000000
C      4.41448      1.74244     10.00000        -0.002472      0.001087      0.000000
C      5.81681     -1.70568     10.00000         0.002332     -0.002021     -0.000000
C      4.38566      7.59608     10.00000        -0.002332      0.002021      0.000000
C      8.77125      0.00001     10.00000         0.000197     -0.003368      0.000000
C      1.43122      5.89039     10.00000        -0.000197      0.003368      0.000000
C      5.81686      1.70571     10.00000        -0.000091      0.000116      0.000000
C      4.38561      4.18469     10.00000         0.000091     -0.000116      0.000000
Ir      3.40083      5.89040     10.00000         0.000050     -0.000173      0.000000
Ir      6.80165      0.00000     10.00000        -0.000050      0.000173      0.000000
