152
# total energy = -1110.38998357 eVH     10.35389      5.87395      7.64558        -0.379893     -0.133042      1.129465
H     10.62451     15.10445      7.64558         0.333831      0.078043      0.924042
H     10.62451      5.87395     13.33282        -0.320434     -0.682764     -1.352474
H     10.35389     15.10445     13.33282        -0.590007      0.422683     -0.331088
H      7.64558     10.35389      5.87395         0.554907     -0.523902     -0.098757
H      7.64558     10.62451     15.10445         0.383737     -0.236032      0.043673
H     13.33282     10.62451      5.87395        -0.572775      0.643620     -0.044989
H     13.33282     10.35389     15.10445        -0.526197      0.392345      0.155906
H      5.87395      7.64558     10.35389         0.149446      0.551533      0.028925
H     15.10445      7.64558     10.62451         0.430466      1.009625      0.278133
H      5.87395     13.33282     10.62451        -0.221425     -0.498736      0.361335
H     15.10445     13.33282     10.35389         0.027835     -0.300503     -0.380378
H      5.87395     10.35389      7.64558        -0.097766     -0.402013      1.475858
H     15.10445     10.62451      7.64558         0.218656      0.504455      1.320879
H      5.87395     10.62451     13.33282        -0.212174     -0.368342     -1.200564
H     15.10445     10.35389     13.33282         0.606396      0.986702     -1.532780
H     10.35389      7.64558      5.87395        -0.576662      0.524005     -0.175979
H     10.62451      7.64558     15.10445        -0.135712      0.461827      0.163478
H     10.62451     13.33282      5.87395         0.871747     -1.338498     -0.314975
H     10.35389     13.33282     15.10445         0.232441     -0.562395     -0.103384
H      7.64558      5.87395     10.35389         0.718659      0.165840     -0.169618
H      7.64558     15.10445     10.62451         1.978635      0.755713      0.218356
H     13.33282      5.87395     10.62451        -2.666611     -0.920289     -0.501035
H     13.33282     15.10445     10.35389        -0.877408     -0.055091     -0.252699
H     12.45634     12.45634     19.01126         0.272175      0.257723     -0.227610
H     19.01126     19.01126     19.01126        -0.266628     -0.255044     -0.238920
H     19.01126     12.45634     12.45634        -0.283662      0.281386      0.184948
H     12.45634     19.01126     12.45634         0.256520     -0.250948      0.235554
C     10.35284      5.61067      6.59456         0.076799     -0.491172     -1.211371
C     10.62556     15.36773      6.59456         0.188582      0.754389     -0.813323
C     10.62556      5.61067     14.38384         0.183517     -0.298538      1.790706
C     10.35284     15.36773     14.38384         0.088363      0.384453      1.793561
C      6.59456     10.35284      5.61067        -1.136849     -0.110317     -0.888382
C      6.59456     10.62556     15.36773        -0.701134     -0.096749      0.788018
C     14.38384     10.62556      5.61067         0.845255     -0.111444     -0.994531
C     14.38384     10.35284     15.36773         1.184666      0.168211      1.101102
C      5.61067      6.59456     10.35284        -0.668920     -0.893070     -0.186768
C     15.36773      6.59456     10.62556         1.999302     -0.307695     -0.186923
C      5.61067     14.38384     10.62556        -1.568462     -0.011929     -0.140232
C     15.36773     14.38384     10.35284         0.485391      0.085952      0.002526
C      5.61067     10.35284      6.59456        -0.275545      0.207048     -1.350196
C     15.36773     10.62556      6.59456         0.293085     -0.258402     -0.986579
C      5.61067     10.62556     14.38384        -0.255873      0.441191      1.456801
C     15.36773     10.35284     14.38384         0.015936     -0.476712      1.942640
C     10.35284      6.59456      5.61067        -0.164413     -0.857634     -0.694887
C     10.62556      6.59456     15.36773        -0.116724     -0.726536      1.048077
C     10.62556     14.38384      5.61067        -0.502365      1.993389     -0.759579
C     10.35284     14.38384     15.36773        -0.263768      1.372712      0.498375
C      6.59456      5.61067     10.35284        -0.983399     -0.410754      0.091998
C      6.59456     15.36773     10.62556        -1.264856      0.370417     -0.332892
C     14.38384      5.61067     10.62556         1.277165     -1.294619      0.206324
C     14.38384     15.36773     10.35284         0.455812      0.311945      0.082725
C     10.40319      3.19606      7.29314         0.001451      0.305401     -0.109143
C     10.35913      4.25547      6.23373         0.141812     -0.565858      0.015292
C      0.08601      7.29314      7.29314        -0.053012     -0.284376     -0.421774
C      0.13007      6.23373      6.23373        -0.122464      0.678033      0.020271
C      0.08601      3.19606      3.19606        -0.105733      1.656687      0.167021
C      0.13007      4.25547      4.25547        -0.093646     -0.395688     -1.214080
C     10.40319      7.29314      3.19606         0.015969     -0.444832      0.122228
C     10.35913      6.23373      4.25547         0.263538      0.084865     -0.529441
C      7.29314     10.40319      3.19606        -1.690904      0.009996      0.323931
C      6.23373     10.35913      4.25547         0.666663      0.080173     -0.620281
C      7.29314      0.08601      7.29314        -0.409335     -0.014791     -0.314702
C      6.23373      0.13007      6.23373         0.716361     -0.057727      0.249495
C      3.19606      0.08601      3.19606         0.660191     -0.018148      0.180872
C      4.25547      0.13007      4.25547        -0.360744     -0.083562     -0.561741
C      3.19606     10.40319      7.29314         0.354655      0.022185     -0.318759
C      4.25547     10.35913      6.23373        -0.736817      0.075376      0.363120
C      3.19606      7.29314     10.40319         0.287332     -0.204553     -0.006793
C      4.25547      6.23373     10.35913         0.043315      0.635397      0.091328
C      7.29314      7.29314      0.08601        -0.717187     -0.610454     -0.025898
C      6.23373      6.23373      0.13007         0.898902      1.124202     -0.067387
C      3.19606      3.19606      0.08601         0.822219      0.512541      0.002976
C      4.25547      4.25547      0.13007        -0.327875     -1.762612     -0.129089
C      7.29314      3.19606     10.40319        -0.325857      0.271446     -0.004639
C      6.23373      4.25547     10.35913         0.507535     -0.022838      0.230084
O     10.43466      3.58206      8.50569        -0.048347      0.185767      0.258784
O     10.54374     17.39634      8.50569         0.042463     -0.236011      0.485831
O     10.54374      3.58206     12.47271         0.083997     -0.073053     -0.025869
O     10.43466     17.39634     12.47271        -0.022906     -0.142076     -0.270977
O      8.50569     10.43466      3.58206         0.991881      0.188602      0.379032
O      8.50569     10.54374     17.39634         0.578428      0.084270     -0.229900
O     12.47271     10.54374      3.58206        -0.415384     -0.040821      0.182793
O     12.47271     10.43466     17.39634        -0.508625     -0.068357     -0.194186
O      3.58206      8.50569     10.43466         0.184224      0.424708     -0.029352
O     17.39634      8.50569     10.54374        -0.230451      0.713425      0.045476
O      3.58206     12.47271     10.54374         0.162221     -0.681358      0.025672
O     17.39634     12.47271     10.43466        -0.186258     -0.476003     -0.011015
O      3.58206     10.43466      8.50569         0.229568     -0.061470      0.404516
O     17.39634     10.54374      8.50569        -0.171314      0.037107      0.411578
O      3.58206     10.54374     12.47271         0.148255      0.021191     -0.304500
O     17.39634     10.43466     12.47271         0.079516     -0.051565     -0.073108
O     10.43466      8.50569      3.58206         0.004110      0.273194      0.182942
O     10.54374      8.50569     17.39634         0.070040      0.428545     -0.175892
O     10.54374     12.47271      3.58206        -0.221857     -0.974161      0.332857
O     10.43466     12.47271     17.39634        -0.082435     -0.450677     -0.245537
O      8.50569      3.58206     10.43466         0.490481      0.197094     -0.010656
O      8.50569     17.39634     10.54374         0.665644     -0.202813      0.021779
O     12.47271      3.58206     10.54374        -0.745907      0.279693      0.037335
O     12.47271     17.39634     10.43466        -0.433288     -0.205554     -0.044121
O     11.90042     11.90042     19.56718        -0.346824     -0.307611      0.260226
O     19.56718     19.56718     19.56718         0.324663      0.311510      0.283425
O     19.56718     11.90042     11.90042         0.275267     -0.274454     -0.138991
O     11.90042     19.56718     11.90042        -0.305210      0.283502     -0.233644
O      9.45224      1.03696      9.45224        -0.060528      0.072710     -0.046059
O      1.03696      9.45224      9.45224         0.036040     -0.075456     -0.070840
O      1.03696      1.03696      1.03696         0.062969      0.148088      0.096380
O      9.45224      9.45224      1.03696        -0.141404     -0.097463      0.096661
Zr     10.48920      2.52580     10.48920         0.162425     -0.172194     -0.167232
Zr     10.48920     18.45260     10.48920        -0.101012      0.186238     -0.050111
Zr     10.48920     10.48920      2.52580         0.341723     -0.310425     -0.203682
Zr     10.48920     10.48920     18.45260         0.013354     -0.088286      0.201042
Zr      2.52580     10.48920     10.48920        -0.070944      0.178344     -0.052481
Zr     18.45260     10.48920     10.48920         0.145698     -0.131925     -0.252207
Ir     12.03895     12.48511     10.45608         0.025221     -0.023084     -0.029715
Ir     11.21375      7.41371     10.25394         0.005777      0.004221     -0.011175
Ir      8.85367      7.35287     11.53108         0.009498     -0.008847     -0.010157
Ir      7.46626     11.64864      7.65783        -0.012147     -0.007358      0.000151
Ir     11.59508     12.07548      7.11406         0.005294     -0.004274     -0.000707
Ir     13.78141      8.99261      7.52800         0.001588      0.000242     -0.005030
Ir     12.47330     13.95337      8.40878        -0.002691     -0.007166     -0.000624
Ir      9.73739     11.25576      5.54321         0.003682     -0.003175     -0.006967
Ir      9.07497     13.44683      7.07666         0.002512     -0.000302     -0.008724
Ir      9.26891      9.67051      7.50314        -0.001646      0.009860      0.000011
Ir     13.28588      7.03743     11.95766        -0.002381     -0.005488      0.001880
Ir     13.62986      7.04091      9.10951         0.009063      0.006881     -0.009721
Ir     11.04468      7.59217     12.80802         0.002648      0.001429     -0.023684
Ir     13.60011     11.56491      8.75161        -0.015501      0.000175      0.007683
Ir     11.50319      9.62660      6.22176        -0.003079     -0.005656     -0.004751
Ir      7.15982      9.15005      8.92242        -0.003533     -0.005335     -0.010793
Ir     14.05934     11.43884     11.64878        -0.000059      0.000944     -0.005288
Ir     11.66044      9.83190      8.86512        -0.001944     -0.006392     -0.002675
Ir      9.44181      9.50174     10.22857         0.020961      0.003983     -0.015675
Ir     13.87785      9.41166     10.17027        -0.001262      0.006928     -0.007569
Ir     13.83335      9.16317     12.88398         0.008714      0.002402     -0.003744
Ir     11.70070      9.75951     11.54295         0.003548     -0.008567     -0.012157
Ir      9.91565     11.73192      8.96363        -0.000663     -0.037142      0.001391
Ir      9.10345      7.43326      8.77856         0.013667     -0.001865     -0.015687
Ir     11.62443      7.53135      7.73015         0.026842     -0.014681     -0.010753
Ir      9.25606      9.46989     13.00503         0.002355     -0.006577      0.000588
Ir      7.50741     13.90027      8.99403        -0.007837      0.003006      0.005029
Ir     10.86638     14.10141     11.95040        -0.014778      0.017179      0.022452
Ir     10.11079     14.14725      9.51601         0.000550      0.012206     -0.004338
Ir      9.79140     11.68083     11.72367        -0.011468     -0.010368     -0.001643
Ir      7.58994     11.56337     10.20751        -0.001367     -0.001299     -0.005058
Ir      8.34537     13.73578     11.58241        -0.004171     -0.003377     -0.000182
Ir      7.52553     11.54555     12.82255        -0.000926     -0.006110     -0.001517
Ir      9.77650     11.59519     14.34252         0.003493     -0.008502      0.000992
Ir     13.46691     13.88428     12.18690        -0.002105     -0.001544     -0.001619
Ir     11.98899     12.04533     13.07775         0.009378     -0.011702      0.005920
Ir     11.58430      9.78460     14.18219         0.003553     -0.008766     -0.007233
Ir      7.15703      9.34964     11.48179        -0.007096     -0.007041     -0.000263
