20
# total energy = -156.17984691 eVC      8.41895      4.03115      7.50000         0.005954      0.001716     -0.000000
C      1.43630      0.00007      7.50000        -0.003804     -0.006384     -0.000000
C      8.41892     -4.03187      7.50000         0.006394     -0.014947      0.000000
C      0.71821      1.24388      7.50000        -0.005954     -0.001716     -0.000000
C      7.70086      5.27495      7.50000         0.003804      0.006384      0.000000
C      0.71823      9.30689      7.50000        -0.006394      0.014947      0.000000
C      7.72072     -2.82260      7.50000         0.002808     -0.004121      0.000000
C      7.72076      2.82164      7.50000         0.003057      0.008235      0.000000
C      2.83288     -0.00012      7.50000        -0.006805      0.001626     -0.000000
C      1.41644      8.09762      7.50000        -0.002808      0.004121      0.000000
C      1.41640      2.45338      7.50000        -0.003057     -0.008235     -0.000000
C      6.30428      5.27514      7.50000         0.006805     -0.001626      0.000000
N      7.13327     -1.80494      7.50000         0.001564     -0.002929      0.000000
N      7.13324      1.80403      7.50000         0.003327      0.004718      0.000000
N      4.00794     -0.00021      7.50000        -0.009049     -0.000538     -0.000000
N      2.00389      7.07996      7.50000        -0.001564      0.002929      0.000000
N      2.00391      3.47099      7.50000        -0.003327     -0.004718     -0.000000
N      5.12922      5.27523      7.50000         0.009049      0.000538      0.000000
Au      6.09147     -0.00039      7.50000         0.000683     -0.001021      0.000000
Au      3.04569      5.27541      7.50000        -0.000683      0.001021      0.000000
