152
# total energy = -1023.23832568 eVH     10.35389      5.87395      7.64558         0.489763      0.082670      0.712715
H     10.62451     15.10445      7.64558        -0.109669     -0.054163      0.809997
H     10.62451      5.87395     13.33282         0.146118      0.127956     -0.635642
H     10.35389     15.10445     13.33282        -0.173536     -0.119786     -0.542214
H      7.64558     10.35389      5.87395         0.312228     -0.021845      0.193556
H      7.64558     10.62451     15.10445         0.650897     -0.220204     -0.134927
H     13.33282     10.62451      5.87395        -0.766793     -0.150060      0.204318
H     13.33282     10.35389     15.10445        -0.437323     -0.104890     -0.059494
H      5.87395      7.64558     10.35389         0.210252      1.098945     -0.267197
H     15.10445      7.64558     10.62451        -0.174871      0.470504     -0.120045
H      5.87395     13.33282     10.62451         0.161247     -0.424235     -0.063844
H     15.10445     13.33282     10.35389        -0.129898     -0.911539      0.016799
H      5.87395     10.35389      7.64558         0.135515      0.096032      0.461101
H     15.10445     10.62451      7.64558         0.098581     -0.018869      1.075788
H      5.87395     10.62451     13.33282         0.194238     -0.031990     -0.387251
H     15.10445     10.35389     13.33282        -0.120781     -0.052413     -0.544458
H     10.35389      7.64558      5.87395         0.127710      0.885064      0.189001
H     10.62451      7.64558     15.10445        -0.008027      0.522549     -0.163598
H     10.62451     13.33282      5.87395        -0.018816     -0.590968      0.223634
H     10.35389     13.33282     15.10445        -0.296119     -0.889169     -0.124174
H      7.64558      5.87395     10.35389         0.442770      0.095972     -0.050695
H      7.64558     15.10445     10.62451         0.853512     -0.279440      0.037072
H     13.33282      5.87395     10.62451        -0.454259      0.185945     -0.065528
H     13.33282     15.10445     10.35389        -0.659168     -0.098758      0.163841
H     12.45634     12.45634     19.01126         0.252823      0.264433     -0.229317
H     19.01126     19.01126     19.01126        -0.251470     -0.231485     -0.260994
H     19.01126     12.45634     12.45634        -0.235961      0.272816      0.240250
H     12.45634     19.01126     12.45634         0.224977     -0.264162      0.250393
C     10.35284      5.61067      6.59456        -0.193487     -0.361902     -0.027436
C     10.62556     15.36773      6.59456         0.067584      0.374978     -1.213804
C     10.62556      5.61067     14.38384        -0.055940     -0.245504      0.805260
C     10.35284     15.36773     14.38384         0.046900      0.885801      0.412130
C      6.59456     10.35284      5.61067        -0.369552     -0.036137     -0.172171
C      6.59456     10.62556     15.36773        -0.840724      0.200099      0.369643
C     14.38384     10.62556      5.61067         0.455315      0.298844     -0.503889
C     14.38384     10.35284     15.36773         0.780158     -0.114306      0.445240
C      5.61067      6.59456     10.35284        -0.312288     -0.650768      0.427750
C     15.36773      6.59456     10.62556         0.170454     -0.517494      0.080546
C      5.61067     14.38384     10.62556        -0.144086      0.389948     -0.022638
C     15.36773     14.38384     10.35284         0.396954     -0.039685     -0.102730
C      5.61067     10.35284      6.59456        -0.257268     -0.019143     -0.781249
C     15.36773     10.62556      6.59456         0.604730     -0.271431     -1.342702
C      5.61067     10.62556     14.38384        -0.342959      0.000324      0.430001
C     15.36773     10.35284     14.38384         0.494404     -0.165753      1.131191
C     10.35284      6.59456      5.61067        -0.165787     -0.493194     -0.433191
C     10.62556      6.59456     15.36773         0.055099     -0.626190      0.268810
C     10.62556     14.38384      5.61067         0.105366      1.004869     -0.492112
C     10.35284     14.38384     15.36773         0.251614      0.595259      0.540665
C      6.59456      5.61067     10.35284        -0.102621     -0.813420      0.075064
C      6.59456     15.36773     10.62556        -1.523268      0.410598      0.106978
C     14.38384      5.61067     10.62556         0.646999     -0.274364     -0.016209
C     14.38384     15.36773     10.35284        -0.429373      0.680894     -0.311784
C     10.40319      3.19606      7.29314         0.007404      0.839332     -0.295198
C     10.35913      4.25547      6.23373        -0.053852     -0.465065      0.509072
C      0.08601      7.29314      7.29314        -0.006915     -0.262317     -0.506788
C      0.13007      6.23373      6.23373         0.030707      0.142561      0.208561
C      0.08601      3.19606      3.19606        -0.011318      0.648627      0.196959
C      0.13007      4.25547      4.25547        -0.092697     -0.181332     -0.198900
C     10.40319      7.29314      3.19606        -0.007598     -0.651743      0.562100
C     10.35913      6.23373      4.25547        -0.043339      0.274710     -0.612226
C      7.29314     10.40319      3.19606        -0.327180      0.027138      0.936999
C      6.23373     10.35913      4.25547         0.174011      0.030895     -0.125099
C      7.29314      0.08601      7.29314        -0.308732     -0.038093     -0.298232
C      6.23373      0.13007      6.23373         0.333517     -0.051561      0.326674
C      3.19606      0.08601      3.19606         0.530707     -0.033596      0.706903
C      4.25547      0.13007      4.25547        -0.091589     -0.032200     -0.374490
C      3.19606     10.40319      7.29314         0.725246      0.001415     -0.405622
C      4.25547     10.35913      6.23373        -0.156942      0.030840      0.085664
C      3.19606      7.29314     10.40319         0.672123     -1.284218     -0.009574
C      4.25547      6.23373     10.35913        -0.651160      0.915539      0.084145
C      7.29314      7.29314      0.08601        -0.677893     -0.182622     -0.018791
C      6.23373      6.23373      0.13007         0.215260      0.205057      0.016738
C      3.19606      3.19606      0.08601         0.267632      0.293463     -0.020686
C      4.25547      4.25547      0.13007        -0.072220     -0.037741     -0.001602
C      7.29314      3.19606     10.40319        -0.362389      1.005975      0.016956
C      6.23373      4.25547     10.35913         1.063216     -0.027887      0.014280
O     10.43466      3.58206      8.50569        -0.043201      0.047603      0.385838
O     10.54374     17.39634      8.50569        -0.039417     -0.169508      0.584273
O     10.54374      3.58206     12.47271         0.050722      0.061154     -0.310811
O     10.43466     17.39634     12.47271        -0.009455     -0.138265     -0.629220
O      8.50569     10.43466      3.58206         0.354055     -0.027835     -0.028549
O      8.50569     10.54374     17.39634         0.471985      0.045134     -0.145126
O     12.47271     10.54374      3.58206        -0.483845      0.012828      0.083819
O     12.47271     10.43466     17.39634        -0.811213      0.003020     -0.195963
O      3.58206      8.50569     10.43466         0.111096      1.043638      0.017438
O     17.39634      8.50569     10.54374        -0.032199      0.312666      0.074829
O      3.58206     12.47271     10.54374         0.072549     -0.461004      0.051730
O     17.39634     12.47271     10.43466        -0.176202     -0.896144      0.056824
O      3.58206     10.43466      8.50569        -0.066083     -0.069138      0.322594
O     17.39634     10.54374      8.50569        -0.130957      0.042214      0.462285
O      3.58206     10.54374     12.47271         0.089926     -0.024173     -0.638620
O     17.39634     10.43466     12.47271        -0.183129      0.054515     -0.782914
O     10.43466      8.50569      3.58206         0.028477      0.648926      0.156953
O     10.54374      8.50569     17.39634         0.062012      0.446610     -0.083390
O     10.54374     12.47271      3.58206        -0.011952     -0.736224      0.232786
O     10.43466     12.47271     17.39634         0.034716     -0.849885     -0.240416
O      8.50569      3.58206     10.43466         0.442243      0.021323     -0.039249
O      8.50569     17.39634     10.54374         0.689127     -0.263495     -0.061748
O     12.47271      3.58206     10.54374        -0.461800      0.152767      0.042932
O     12.47271     17.39634     10.43466        -0.552203     -0.021437     -0.006468
O     11.90042     11.90042     19.56718        -0.293902     -0.313674      0.256542
O     19.56718     19.56718     19.56718         0.283353      0.263872      0.311866
O     19.56718     11.90042     11.90042         0.260977     -0.321821     -0.242430
O     11.90042     19.56718     11.90042        -0.271560      0.278727     -0.265209
O      9.45224      1.03696      9.45224        -0.082383      0.042138     -0.069281
O      1.03696      9.45224      9.45224         0.015214     -0.168647     -0.097013
O      1.03696      1.03696      1.03696         0.002514      0.069668      0.181074
O      9.45224      9.45224      1.03696        -0.062194     -0.099594      0.108831
Zr     10.48920      2.52580     10.48920         0.001289     -0.094826     -0.052926
Zr     10.48920     18.45260     10.48920         0.129697      0.352308     -0.002700
Zr     10.48920     10.48920      2.52580         0.013510     -0.035919     -0.392283
Zr     10.48920     10.48920     18.45260        -0.157906     -0.058769      0.374566
Zr      2.52580     10.48920     10.48920        -0.330161      0.243149     -0.126905
Zr     18.45260     10.48920     10.48920         0.278058     -0.014605     -0.283099
Pd      8.99194     10.13140     13.31227        -0.061417     -0.028247      0.027153
Pd     10.69117      9.70647     10.85413        -0.003481     -0.031169     -0.111079
Pd     13.73159      8.40203     12.57542        -0.023201      0.041742      0.006906
Pd     11.00979     10.91472     14.96789        -0.031354     -0.020224      0.018390
Pd     12.90703     11.02614     12.96144         0.027796      0.048088      0.064397
Pd     15.10077     11.10006     11.31437        -0.028409     -0.039900     -0.008182
Pd      6.60229      7.70681     12.31867         0.000643      0.030154      0.016418
Pd      9.31707      7.29789      9.86859        -0.008214      0.003615     -0.021293
Pd      9.22995      7.47715     12.63080         0.009204     -0.002851     -0.022967
Pd     11.63894      7.16237     11.41907         0.002582      0.021007     -0.016232
Pd     11.69757      7.99990      8.90417         0.011851     -0.034615     -0.051606
Pd      7.37706     11.77994     11.78096        -0.026689      0.006879      0.004177
Pd      9.19527     14.75683      9.43968         0.002011     -0.057783     -0.004861
Pd      8.40414     12.55597     14.25678        -0.035511     -0.008474      0.011740
Pd     14.09279     14.25400      8.31315         0.003038     -0.005636      0.000896
Pd     11.49892     13.64950      8.72619         0.024939     -0.020022      0.026832
Pd     14.16347     11.69542      8.88817        -0.028713     -0.014656      0.016617
Pd      8.72095     14.03719     12.06939        -0.008188     -0.005122      0.011405
Pd     12.27372     13.50503     14.14241        -0.010043      0.035336     -0.004276
Pd     11.34410     14.42795     11.44013         0.007181     -0.040377      0.006911
Pd     14.07872     13.60149     12.26949        -0.003204     -0.014500     -0.008337
Pd     12.42504     12.16722     10.72481        -0.007660     -0.078070      0.007352
Pd     12.75264     12.52657      6.67758        -0.005267      0.014273      0.000574
Pd     13.93252      9.00321      7.99293         0.006203     -0.010959     -0.036085
Pd      6.94054      8.50014      8.76287         0.006358     -0.008070     -0.013818
Pd      5.62565     10.10516     10.71867        -0.009710     -0.010843     -0.055528
Pd      9.39679      9.47123      8.11431        -0.005652     -0.032728     -0.072737
Pd      8.57135      7.03456      7.23838        -0.020360     -0.025843     -0.011578
Pd      9.76273     12.13122     10.35869         0.002598     -0.025990      0.058932
Pd     11.63690     10.81861      8.48805        -0.000450     -0.006410     -0.031285
Pd     11.58290      9.09674      6.46891         0.020313     -0.012673     -0.040480
Pd     10.08798     11.34662      6.30861         0.028948     -0.027712     -0.093174
Ir     11.29646      9.00545     13.22052        -0.024024      0.017386     -0.043172
Ir     13.22116      9.61932     10.38310        -0.009166     -0.001541     -0.028299
Ir     10.55404     12.22967     12.73788         0.000710     -0.024812      0.005510
Ir      7.59991     11.00730      9.25573         0.029023     -0.000175     -0.038746
Ir      8.86196     12.60251      8.07427         0.027976      0.002847      0.024132
Ir      8.19596      9.31244     11.00690        -0.010584     -0.027628     -0.005758
