7
# total energy = -58.26558566 eVC      0.00000      2.88343      7.91445         0.000000      0.242919      0.137284
C      1.24950      0.72140      7.91445        -0.210374     -0.121459      0.137284
C      2.49712     -1.44171      7.91445         0.210374     -0.121459      0.137284
C      0.00000      1.44279      7.91445         0.000000     -0.242919      0.137284
C      2.49712      1.44171      7.91445         0.210374      0.121459      0.137284
C      1.24950     -0.72140      7.91445        -0.210374      0.121459      0.137284
Ir      0.00000      0.00000      9.69000         0.000000     -0.000000     -0.823706
