152
# total energy = -1110.16703248 eVH     10.35389      5.87395      7.64558        -0.367922     -0.339505      1.131724
H     10.62451     15.10445      7.64558         0.436589      0.087435      0.971140
H     10.62451      5.87395     13.33282        -0.213604     -1.003688     -1.591169
H     10.35389     15.10445     13.33282        -0.624450      0.351173     -0.437897
H      7.64558     10.35389      5.87395         0.497189     -0.579303     -0.031738
H      7.64558     10.62451     15.10445         0.328143     -0.264219      0.043309
H     13.33282     10.62451      5.87395        -0.430080      0.445598      0.007717
H     13.33282     10.35389     15.10445        -0.486484      0.339133      0.113329
H      5.87395      7.64558     10.35389         0.093103      0.407119      0.033344
H     15.10445      7.64558     10.62451         0.388170      0.442830      0.208486
H      5.87395     13.33282     10.62451        -0.263307     -0.412441      0.393109
H     15.10445     13.33282     10.35389         0.037718     -0.372934     -0.412983
H      5.87395     10.35389      7.64558        -0.073772     -0.271634      1.517661
H     15.10445     10.62451      7.64558         0.161281      0.180097      1.051325
H      5.87395     10.62451     13.33282        -0.092405     -0.311354     -1.082334
H     15.10445     10.35389     13.33282         0.287404      0.563035     -1.252789
H     10.35389      7.64558      5.87395        -0.487786      0.533846     -0.277959
H     10.62451      7.64558     15.10445        -0.075013      0.696368      0.272891
H     10.62451     13.33282      5.87395         0.909154     -1.405640     -0.334961
H     10.35389     13.33282     15.10445         0.314719     -0.525811     -0.020502
H      7.64558      5.87395     10.35389         0.856340      0.137512     -0.132779
H      7.64558     15.10445     10.62451         2.020595      0.838193      0.230262
H     13.33282      5.87395     10.62451        -2.501749     -0.985143     -0.244129
H     13.33282     15.10445     10.35389        -0.839936     -0.031705     -0.246809
H     12.45634     12.45634     19.01126         0.270595      0.256216     -0.230762
H     19.01126     19.01126     19.01126        -0.267650     -0.252115     -0.238653
H     19.01126     12.45634     12.45634        -0.280023      0.283600      0.189222
H     12.45634     19.01126     12.45634         0.257783     -0.252277      0.236362
C     10.35284      5.61067      6.59456         0.164788     -0.426096     -1.513720
C     10.62556     15.36773      6.59456         0.130726      0.698778     -0.874789
C     10.62556      5.61067     14.38384         0.084517     -0.310617      2.014769
C     10.35284     15.36773     14.38384         0.160374      0.296549      1.804777
C      6.59456     10.35284      5.61067        -1.157047     -0.153751     -0.917271
C      6.59456     10.62556     15.36773        -0.619626     -0.130501      0.668398
C     14.38384     10.62556      5.61067         0.745903     -0.134930     -0.819812
C     14.38384     10.35284     15.36773         1.125592      0.142793      0.938040
C      5.61067      6.59456     10.35284        -0.814032     -0.704376     -0.141968
C     15.36773      6.59456     10.62556         1.955727      0.017293     -0.103602
C      5.61067     14.38384     10.62556        -1.585161      0.110919     -0.031969
C     15.36773     14.38384     10.35284         0.448485      0.104777      0.043671
C      5.61067     10.35284      6.59456        -0.325806      0.244873     -1.568741
C     15.36773     10.62556      6.59456         0.288468     -0.041441     -0.938459
C      5.61067     10.62556     14.38384        -0.346956      0.280679      1.442810
C     15.36773     10.35284     14.38384         0.131340     -0.338821      1.652708
C     10.35284      6.59456      5.61067        -0.250549     -1.172850     -0.892345
C     10.62556      6.59456     15.36773        -0.054852     -0.998251      1.143253
C     10.62556     14.38384      5.61067        -0.432005      2.066846     -0.769059
C     10.35284     14.38384     15.36773        -0.288213      1.576365      0.390404
C      6.59456      5.61067     10.35284        -1.009084     -0.372059      0.067864
C      6.59456     15.36773     10.62556        -1.481031      0.316279     -0.340176
C     14.38384      5.61067     10.62556         1.304507     -0.633408      0.013165
C     14.38384     15.36773     10.35284         0.341133      0.269867      0.042517
C     10.40319      3.19606      7.29314         0.018394      0.295519     -0.112336
C     10.35913      4.25547      6.23373         0.123933     -0.440303      0.144359
C      0.08601      7.29314      7.29314        -0.054017     -0.331741     -0.434071
C      0.13007      6.23373      6.23373        -0.156959      0.825534      0.034981
C      0.08601      3.19606      3.19606        -0.115311      1.513169      0.167866
C      0.13007      4.25547      4.25547        -0.117391     -0.388511     -1.358106
C     10.40319      7.29314      3.19606         0.032727     -0.458480      0.109195
C     10.35913      6.23373      4.25547         0.242858      0.129782     -0.409566
C      7.29314     10.40319      3.19606        -1.675295      0.021906      0.269768
C      6.23373     10.35913      4.25547         0.559888      0.055685     -0.548490
C      7.29314      0.08601      7.29314        -0.380571      0.002936     -0.272361
C      6.23373      0.13007      6.23373         0.444558     -0.017215      0.333531
C      3.19606      0.08601      3.19606         0.659595     -0.000170      0.266201
C      4.25547      0.13007      4.25547        -0.395449     -0.016061     -0.430250
C      3.19606     10.40319      7.29314         0.390439      0.040836     -0.370006
C      4.25547     10.35913      6.23373        -0.674790      0.071152      0.407023
C      3.19606      7.29314     10.40319         0.345284     -0.284991     -0.005878
C      4.25547      6.23373     10.35913         0.034477      0.654004      0.103402
C      7.29314      7.29314      0.08601        -0.690731     -0.482301     -0.018921
C      6.23373      6.23373      0.13007         0.426141      1.236610     -0.045954
C      3.19606      3.19606      0.08601         0.793091      0.436359      0.006216
C      4.25547      4.25547      0.13007        -0.358619     -1.552516     -0.093492
C      7.29314      3.19606     10.40319        -0.347325      0.280906      0.002010
C      6.23373      4.25547     10.35913         0.583498     -0.113399      0.241960
O     10.43466      3.58206      8.50569        -0.044796      0.190699      0.276985
O     10.54374     17.39634      8.50569         0.042940     -0.223149      0.480595
O     10.54374      3.58206     12.47271         0.092368     -0.016026     -0.081584
O     10.43466     17.39634     12.47271        -0.033655     -0.110662     -0.247138
O      8.50569     10.43466      3.58206         0.919928      0.181544      0.394675
O      8.50569     10.54374     17.39634         0.553991      0.077463     -0.216483
O     12.47271     10.54374      3.58206        -0.505708     -0.027273      0.194110
O     12.47271     10.43466     17.39634        -0.532176     -0.069810     -0.193973
O      3.58206      8.50569     10.43466         0.168192      0.484755     -0.039245
O     17.39634      8.50569     10.54374        -0.198858      0.671070      0.042576
O      3.58206     12.47271     10.54374         0.151026     -0.623429      0.025177
O     17.39634     12.47271     10.43466        -0.178085     -0.493550     -0.018118
O      3.58206     10.43466      8.50569         0.215423     -0.072542      0.427488
O     17.39634     10.54374      8.50569        -0.163021      0.032511      0.419238
O      3.58206     10.54374     12.47271         0.136851      0.009479     -0.352764
O     17.39634     10.43466     12.47271         0.066985     -0.065804     -0.089740
O     10.43466      8.50569      3.58206         0.005385      0.342225      0.185358
O     10.54374      8.50569     17.39634         0.071289      0.448101     -0.195406
O     10.54374     12.47271      3.58206        -0.220167     -0.900979      0.351728
O     10.43466     12.47271     17.39634        -0.081863     -0.431686     -0.237791
O      8.50569      3.58206     10.43466         0.510697      0.196924     -0.017012
O      8.50569     17.39634     10.54374         0.625063     -0.191873      0.032168
O     12.47271      3.58206     10.54374        -0.716600      0.281187      0.040557
O     12.47271     17.39634     10.43466        -0.468926     -0.188678     -0.040137
O     11.90042     11.90042     19.56718        -0.337004     -0.303708      0.262945
O     19.56718     19.56718     19.56718         0.330767      0.305453      0.284261
O     19.56718     11.90042     11.90042         0.282967     -0.289617     -0.139272
O     11.90042     19.56718     11.90042        -0.315912      0.294356     -0.234414
O      9.45224      1.03696      9.45224        -0.048442      0.072499     -0.043071
O      1.03696      9.45224      9.45224         0.037294     -0.070540     -0.068285
O      1.03696      1.03696      1.03696         0.040717      0.117151      0.126186
O      9.45224      9.45224      1.03696        -0.104915     -0.070125      0.134763
Zr     10.48920      2.52580     10.48920         0.094763     -0.156045     -0.158588
Zr     10.48920     18.45260     10.48920        -0.059991      0.170670     -0.036781
Zr     10.48920     10.48920      2.52580         0.352865     -0.275261     -0.226091
Zr     10.48920     10.48920     18.45260        -0.016292     -0.067908      0.196615
Zr      2.52580     10.48920     10.48920        -0.053254      0.128645     -0.047584
Zr     18.45260     10.48920     10.48920         0.104455     -0.105985     -0.269908
Ir     12.03538     12.43935     10.44446         0.009525      0.027870     -0.012677
Ir     10.92383      7.37611     10.40416         0.055549      0.018900     -0.013525
Ir      8.57355      7.46565     11.65004         0.058842     -0.019269     -0.016047
Ir      7.42636     11.75316      7.65478         0.008662     -0.026051     -0.009427
Ir     11.52859     12.08568      7.13559         0.033697      0.015392      0.013058
Ir     13.51760      8.88722      7.56117         0.077966      0.025068     -0.004904
Ir     12.51734     13.90437      8.42490        -0.007767      0.003571     -0.000641
Ir      9.59970     11.31200      5.61359         0.045837     -0.020583     -0.030448
Ir      9.06984     13.53118      7.07639         0.006570     -0.025664     -0.004515
Ir      9.17181      9.68103      7.58559         0.039119     -0.005631     -0.010098
Ir     13.06302      7.03760     11.93661         0.052411      0.000517      0.002030
Ir     13.29044      6.94583      9.11252         0.071207     -0.003216      0.023255
Ir     10.81109      7.60237     12.92473         0.055309     -0.000018     -0.016288
Ir     13.56300     11.46347      8.72376         0.005387      0.033632      0.026891
Ir     11.36832      9.67841      6.24877         0.050576     -0.005558     -0.011919
Ir      6.96279      9.33191      9.00870         0.059763     -0.025389     -0.021365
Ir     14.05789     11.32939     11.56523        -0.005774      0.009893      0.050135
Ir     11.50841      9.89496      8.92766         0.047828      0.028883      0.022481
Ir      9.26077      9.57748     10.27522         0.079700     -0.006198     -0.003485
Ir     13.68868      9.27693     10.16190         0.061240      0.045572      0.015062
Ir     13.67014      9.15217     12.88994         0.071365     -0.013735      0.041751
Ir     11.52619      9.71007     11.58286         0.049852      0.023965     -0.014539
Ir      9.82882     11.81939      9.00116         0.056909     -0.029978     -0.009661
Ir      8.76950      7.48138      8.91446         0.068339     -0.003905     -0.010823
Ir     11.19398      7.63183      7.88905         0.054614     -0.024329     -0.035649
Ir      9.10635      9.56797     13.03157         0.048067     -0.005976      0.002591
Ir      7.55699     14.02201      8.99492        -0.008255     -0.024060     -0.010437
Ir     10.96848     14.08896     11.97499        -0.009852      0.034006     -0.017665
Ir     10.15184     14.22293      9.54829        -0.006710     -0.007370     -0.020296
Ir      9.76182     11.73144     11.71897         0.029896     -0.003148      0.004012
Ir      7.52271     11.71701     10.23448         0.025529     -0.024861     -0.016260
Ir      8.42704     13.85301     11.62444        -0.011743     -0.016097     -0.023635
Ir      7.50282     11.76254     12.88165         0.010918     -0.040768     -0.026415
Ir      9.76757     11.68196     14.32691        -0.009254     -0.005579      0.008170
Ir     13.54297     13.78338     12.15521        -0.005483      0.035871      0.027163
Ir     12.02164     11.97353     13.05269        -0.031345      0.064107      0.030298
Ir     11.48429      9.79573     14.22747         0.028330      0.017336      0.002568
Ir      6.98097      9.57422     11.55613         0.048648     -0.039296     -0.012752
