152
# total energy = -1059.31731132 eVH     10.35389      5.87395      7.64558        -0.132911     -0.011365      1.072887
H     10.62451     15.10445      7.64558        -0.205750     -0.089588      0.979297
H     10.62451      5.87395     13.33282        -0.224649      0.075719     -0.821020
H     10.35389     15.10445     13.33282        -0.011745     -0.258260     -0.867883
H      7.64558     10.35389      5.87395         0.913172     -0.065538      0.222359
H      7.64558     10.62451     15.10445         0.345513     -0.069994     -0.089928
H     13.33282     10.62451      5.87395        -0.728620      0.028975      0.195587
H     13.33282     10.35389     15.10445        -0.322081      0.016799     -0.076252
H      5.87395      7.64558     10.35389         0.089213      0.387023     -0.108101
H     15.10445      7.64558     10.62451         0.138156      0.686943     -0.191464
H      5.87395     13.33282     10.62451        -0.063399     -1.138352      0.120453
H     15.10445     13.33282     10.35389        -0.025856     -0.326940     -0.002426
H      5.87395     10.35389      7.64558         0.310110      0.083566      0.424252
H     15.10445     10.62451      7.64558        -0.204574     -0.130433      0.592368
H      5.87395     10.62451     13.33282        -0.098389      0.607219     -0.434454
H     15.10445     10.35389     13.33282         0.119363     -0.319043     -0.679703
H     10.35389      7.64558      5.87395         0.052826      0.561988      0.370650
H     10.62451      7.64558     15.10445         0.243391      0.923771     -0.013331
H     10.62451     13.33282      5.87395         0.072285     -0.489960      0.204316
H     10.35389     13.33282     15.10445         0.101198     -0.381383     -0.103005
H      7.64558      5.87395     10.35389         0.362462      0.078087     -0.086593
H      7.64558     15.10445     10.62451         0.386480     -0.061145      0.207396
H     13.33282      5.87395     10.62451        -0.286137      0.079651     -0.013832
H     13.33282     15.10445     10.35389        -0.653816     -0.069008      0.116762
H     12.45634     12.45634     19.01126         0.253673      0.266371     -0.230831
H     19.01126     19.01126     19.01126        -0.239976     -0.278816     -0.243479
H     19.01126     12.45634     12.45634        -0.254847      0.262446      0.242107
H     12.45634     19.01126     12.45634         0.279170     -0.237024      0.239890
C     10.35284      5.61067      6.59456         0.392533     -0.327868     -1.406722
C     10.62556     15.36773      6.59456        -0.058504      0.524563     -0.797538
C     10.62556      5.61067     14.38384         0.443271     -0.505075      0.890678
C     10.35284     15.36773     14.38384        -0.163802      0.213559      1.143917
C      6.59456     10.35284      5.61067        -1.388329      0.064558     -0.284519
C      6.59456     10.62556     15.36773        -0.655861      0.061245      0.297110
C     14.38384     10.62556      5.61067         1.018956     -0.054253     -0.494538
C     14.38384     10.35284     15.36773         0.525686     -0.069080      0.264557
C      5.61067      6.59456     10.35284        -0.334501     -0.500185      0.039603
C     15.36773      6.59456     10.62556         0.292033     -1.292357      0.067209
C      5.61067     14.38384     10.62556        -0.002403      1.232355     -0.234263
C     15.36773     14.38384     10.35284         0.532349      0.655418     -0.019594
C      5.61067     10.35284      6.59456        -0.396660     -0.172970     -0.968112
C     15.36773     10.62556      6.59456         0.421879      0.073032     -0.941752
C      5.61067     10.62556     14.38384        -0.479611     -0.217311      1.344173
C     15.36773     10.35284     14.38384         0.363954      0.050825      1.445476
C     10.35284      6.59456      5.61067        -0.068425     -0.917980     -0.699008
C     10.62556      6.59456     15.36773        -0.188856     -0.930135      0.380613
C     10.62556     14.38384      5.61067        -0.351106      0.451995     -0.663935
C     10.35284     14.38384     15.36773        -0.117390      0.768606      0.417266
C      6.59456      5.61067     10.35284        -0.365220     -0.294505      0.128104
C      6.59456     15.36773     10.62556        -0.560558      0.614477      0.031930
C     14.38384      5.61067     10.62556         0.433526     -0.499164     -0.008487
C     14.38384     15.36773     10.35284         1.169162      0.628566     -0.055062
C     10.40319      3.19606      7.29314        -0.000213      0.550886     -0.348065
C     10.35913      4.25547      6.23373        -0.044652     -0.468490      0.356501
C      0.08601      7.29314      7.29314        -0.030653     -0.268824     -0.497360
C      0.13007      6.23373      6.23373        -0.108505      0.837784      0.096223
C      0.08601      3.19606      3.19606        -0.004097      0.658812      0.286831
C      0.13007      4.25547      4.25547         0.001922     -0.328163     -0.389155
C     10.40319      7.29314      3.19606        -0.058744     -0.894991      0.504726
C     10.35913      6.23373      4.25547        -0.056435      0.398931     -0.140927
C      7.29314     10.40319      3.19606        -0.907086     -0.048054      0.141294
C      6.23373     10.35913      4.25547         0.254917      0.085194     -0.404783
C      7.29314      0.08601      7.29314        -0.366294      0.047860     -0.860703
C      6.23373      0.13007      6.23373         0.207841      0.125944      0.184048
C      3.19606      0.08601      3.19606         0.598882      0.014754      0.259829
C      4.25547      0.13007      4.25547        -0.161476     -0.016302     -0.278343
C      3.19606     10.40319      7.29314         0.313174     -0.023607     -0.891158
C      4.25547     10.35913      6.23373        -0.186347     -0.091368      0.130828
C      3.19606      7.29314     10.40319         0.592023     -0.383536     -0.003266
C      4.25547      6.23373     10.35913        -0.203281      0.154032      0.028726
C      7.29314      7.29314      0.08601        -0.377348     -0.401445     -0.019042
C      6.23373      6.23373      0.13007         0.324074      0.291252     -0.004097
C      3.19606      3.19606      0.08601         0.295480      0.467657     -0.022821
C      4.25547      4.25547      0.13007        -0.492503     -0.220851     -0.046652
C      7.29314      3.19606     10.40319        -0.281803      0.638474     -0.017118
C      6.23373      4.25547     10.35913        -0.014548     -0.229812      0.049383
O     10.43466      3.58206      8.50569        -0.029329      0.136865      0.361011
O     10.54374     17.39634      8.50569         0.100660     -0.156352      0.612805
O     10.54374      3.58206     12.47271         0.024020      0.103915     -0.381533
O     10.43466     17.39634     12.47271         0.092853     -0.104432     -0.382234
O      8.50569     10.43466      3.58206         0.746215     -0.095480      0.122408
O      8.50569     10.54374     17.39634         0.328465      0.044942     -0.007007
O     12.47271     10.54374      3.58206        -0.658712      0.092379      0.202229
O     12.47271     10.43466     17.39634        -0.279612      0.003350      0.017375
O      3.58206      8.50569     10.43466         0.068561      0.451236     -0.035226
O     17.39634      8.50569     10.54374        -0.058433      0.459675      0.053882
O      3.58206     12.47271     10.54374         0.098055     -0.558060      0.022795
O     17.39634     12.47271     10.43466        -0.180517     -0.743394     -0.070406
O      3.58206     10.43466      8.50569         0.246279     -0.051968      0.833058
O     17.39634     10.54374      8.50569        -0.244837      0.096478      0.797524
O      3.58206     10.54374     12.47271         0.027135     -0.023603     -0.305260
O     17.39634     10.43466     12.47271         0.044080     -0.012299     -0.210194
O     10.43466      8.50569      3.58206        -0.149990      0.602358      0.045436
O     10.54374      8.50569     17.39634         0.045239      0.449019     -0.112298
O     10.54374     12.47271      3.58206         0.097245     -0.667627      0.156849
O     10.43466     12.47271     17.39634        -0.058039     -0.609285     -0.207022
O      8.50569      3.58206     10.43466         0.377701      0.026226     -0.029885
O      8.50569     17.39634     10.54374         0.634619     -0.138786      0.052964
O     12.47271      3.58206     10.54374        -0.539154      0.136237      0.028537
O     12.47271     17.39634     10.43466        -0.619297     -0.164014      0.003648
O     11.90042     11.90042     19.56718        -0.281937     -0.317204      0.246551
O     19.56718     19.56718     19.56718         0.287607      0.328373      0.285612
O     19.56718     11.90042     11.90042         0.295080     -0.319368     -0.240272
O     11.90042     19.56718     11.90042        -0.311905      0.240492     -0.213818
O      9.45224      1.03696      9.45224        -0.077689      0.073198     -0.090983
O      1.03696      9.45224      9.45224         0.083254     -0.101397     -0.048023
O      1.03696      1.03696      1.03696         0.056337      0.021995      0.120882
O      9.45224      9.45224      1.03696        -0.022676     -0.106337      0.144143
Zr     10.48920      2.52580     10.48920         0.056311     -0.051337      0.043858
Zr     10.48920     18.45260     10.48920        -0.187509      0.248222     -0.290368
Zr     10.48920     10.48920      2.52580         0.064827      0.260194     -0.369549
Zr     10.48920     10.48920     18.45260        -0.012342     -0.168993      0.142539
Zr      2.52580     10.48920     10.48920        -0.201911      0.147721      0.183858
Zr     18.45260     10.48920     10.48920         0.197429     -0.127914      0.172785
Pd      9.32412     14.11271      9.71995        -0.008077     -0.000188     -0.210752
Pd      8.73099     13.52096     13.08908        -0.054257      0.159322      0.013394
Pd     11.90032     14.52082      8.79227         0.000725     -0.064904      0.019944
Pd     12.86434     12.87840     10.48038         0.022221     -0.100268      0.122127
Pd     12.27433      7.13744     12.82541        -0.019696      0.001620     -0.089719
Pd     11.34671     14.71637     11.68691        -0.053500     -0.021906     -0.017913
Pd     10.29253     12.28263     11.30164        -0.108642      0.110327     -0.006723
Pd     13.40646     12.18793      7.91350         0.046379     -0.065928      0.032631
Pd     11.32797     11.49713      6.16766         0.077308      0.027425     -0.020548
Pd      7.73799      8.50345      7.73296         0.108603      0.074672     -0.120581
Pd      8.67679     11.71777      7.04283         0.089776      0.042005     -0.066300
Pd     10.22918      9.51254      8.35291         0.103983     -0.110633     -0.137498
Pd      8.57939     14.41780      7.18113        -0.078464      0.023272     -0.185254
Pd     12.17786      9.03924      6.73568         0.090529      0.002029     -0.130631
Pd      9.58367      9.47970      5.76023         0.098855      0.051357     -0.089801
Pd      6.67329      9.51711     12.07280         0.149405      0.006714      0.093431
Pd     12.32021      6.62028      7.88601        -0.076658     -0.001292     -0.087759
Pd      5.99349     10.54448      9.61260         0.013128      0.020264      0.105245
Pd      7.53062      7.12509     12.73082        -0.008528     -0.039843      0.115984
Ir     11.95283      9.72823     13.10018        -0.099963     -0.003200     -0.019478
Ir     13.72495      8.85100     11.46949        -0.065875      0.052980     -0.107764
Ir      9.50677      8.66225     13.70491        -0.038471      0.112533     -0.020206
Ir     10.50077     11.04998     14.65937         0.129557     -0.101256      0.059959
Ir      7.27175     12.08958     11.44213         0.105388     -0.007325     -0.108231
Ir     14.87472     10.71843      9.90060        -0.102172     -0.004050      0.074431
Ir     12.28885     10.46365      9.69839        -0.021873     -0.049688      0.030329
Ir      8.70460     10.87823     12.98406         0.210323      0.048743      0.180282
Ir     10.27713      9.73098     11.31177        -0.130357      0.048067      0.012492
Ir     13.82878     11.25273     12.11675         0.015221      0.146076      0.179755
Ir     11.95204     12.39290     13.12863        -0.093746     -0.074526     -0.044275
Ir      8.55779     11.11715      9.55968        -0.129220     -0.002275     -0.036562
Ir     11.74955      7.94149     10.07736        -0.053801     -0.013783     -0.061960
Ir      7.10632     12.96437      8.77450         0.121119     -0.109824     -0.038488
Ir      9.58206      6.99080      9.07313        -0.108392     -0.019259     -0.075258
Ir      8.16706      8.69403     10.24537        -0.006097     -0.055552     -0.069895
Ir     10.77379     12.11401      8.63047         0.027508     -0.040347      0.003765
Ir      9.85258      7.22478     11.58038        -0.120776      0.033116      0.033012
Ir     13.75991      8.68455      8.72951        -0.060258     -0.065653     -0.005883
