20
# total energy = -156.18006441 eVC      8.41879      4.03067      7.50000        -0.006638     -0.004363      0.000000
C      1.43682     -0.00013      7.50000         0.006756      0.005644      0.000000
C      8.41879     -4.03177      7.50000        -0.007470      0.015581      0.000000
C      0.71836      1.24435      7.50000         0.006638      0.004363     -0.000000
C      7.70034      5.27515      7.50000        -0.006756     -0.005644     -0.000000
C      0.71836      9.30679      7.50000         0.007470     -0.015581      0.000000
C      7.71998     -2.82132      7.50000         0.075490     -0.130905      0.000000
C      7.72008      2.82046      7.50000         0.072193      0.124368     -0.000000
C      2.83426     -0.00010      7.50000        -0.151763     -0.000717     -0.000000
C      1.41717      8.09634      7.50000        -0.075490      0.130905      0.000000
C      1.41708      2.45456      7.50000        -0.072193     -0.124368      0.000000
C      6.30290      5.27512      7.50000         0.151763      0.000717     -0.000000
N      7.13301     -1.80449      7.50000        -0.043756      0.075310      0.000000
N      7.13301      1.80364      7.50000        -0.042659     -0.073779     -0.000000
N      4.00829     -0.00021      7.50000         0.094987      0.000057      0.000000
N      2.00414      7.07951      7.50000         0.043756     -0.075310      0.000000
N      2.00414      3.47139      7.50000         0.042659      0.073779     -0.000000
N      5.12887      5.27523      7.50000        -0.094987     -0.000057     -0.000000
Au      6.09147     -0.00037      7.50000        -0.000168     -0.000347      0.000000
Au      3.04569      5.27539      7.50000         0.000168      0.000347      0.000000
