152
# total energy = -1110.36050932 eVH     10.35389      5.87395      7.64558        -0.341337     -0.160790      1.028682
H     10.62451     15.10445      7.64558         0.383124      0.090526      0.945115
H     10.62451      5.87395     13.33282        -0.305561     -0.719384     -1.415734
H     10.35389     15.10445     13.33282        -0.638715      0.374069     -0.322032
H      7.64558     10.35389      5.87395         0.543420     -0.542057     -0.081523
H      7.64558     10.62451     15.10445         0.354953     -0.242245      0.039371
H     13.33282     10.62451      5.87395        -0.521902      0.609483     -0.014767
H     13.33282     10.35389     15.10445        -0.531824      0.416759      0.163288
H      5.87395      7.64558     10.35389         0.140438      0.494001      0.034813
H     15.10445      7.64558     10.62451         0.429475      0.846400      0.250810
H      5.87395     13.33282     10.62451        -0.230329     -0.442497      0.364431
H     15.10445     13.33282     10.35389         0.031109     -0.311064     -0.391779
H      5.87395     10.35389      7.64558        -0.071656     -0.349253      1.442789
H     15.10445     10.62451      7.64558         0.200311      0.405988      1.253600
H      5.87395     10.62451     13.33282        -0.143987     -0.335922     -1.122856
H     15.10445     10.35389     13.33282         0.533157      0.878769     -1.513839
H     10.35389      7.64558      5.87395        -0.530645      0.495503     -0.197712
H     10.62451      7.64558     15.10445        -0.136037      0.551789      0.201093
H     10.62451     13.33282      5.87395         0.907819     -1.408411     -0.331527
H     10.35389     13.33282     15.10445         0.289081     -0.546431     -0.071071
H      7.64558      5.87395     10.35389         0.724899      0.173627     -0.140459
H      7.64558     15.10445     10.62451         1.970323      0.821537      0.186366
H     13.33282      5.87395     10.62451        -2.694665     -0.998645     -0.419824
H     13.33282     15.10445     10.35389        -0.870168     -0.041021     -0.253532
H     12.45634     12.45634     19.01126         0.271640      0.257927     -0.227445
H     19.01126     19.01126     19.01126        -0.266887     -0.254457     -0.237977
H     19.01126     12.45634     12.45634        -0.282863      0.281247      0.187131
H     12.45634     19.01126     12.45634         0.255907     -0.251782      0.235892
C     10.35284      5.61067      6.59456         0.099317     -0.499087     -1.257302
C     10.62556     15.36773      6.59456         0.162871      0.770126     -0.855469
C     10.62556      5.61067     14.38384         0.170712     -0.325133      1.822519
C     10.35284     15.36773     14.38384         0.121161      0.400129      1.810800
C      6.59456     10.35284      5.61067        -1.118523     -0.111535     -0.845728
C      6.59456     10.62556     15.36773        -0.675776     -0.107638      0.729477
C     14.38384     10.62556      5.61067         0.886683     -0.115224     -0.999283
C     14.38384     10.35284     15.36773         1.207192      0.165089      1.104385
C      5.61067      6.59456     10.35284        -0.690743     -0.799650     -0.161795
C     15.36773      6.59456     10.62556         1.942409     -0.187894     -0.176972
C      5.61067     14.38384     10.62556        -1.575685     -0.004952     -0.111694
C     15.36773     14.38384     10.35284         0.486550      0.048562      0.032140
C      5.61067     10.35284      6.59456        -0.271175      0.205169     -1.363423
C     15.36773     10.62556      6.59456         0.273914     -0.194795     -1.000294
C      5.61067     10.62556     14.38384        -0.280375      0.378377      1.412973
C     15.36773     10.35284     14.38384         0.073296     -0.427973      1.903732
C     10.35284      6.59456      5.61067        -0.202118     -0.927800     -0.693769
C     10.62556      6.59456     15.36773        -0.096849     -0.815774      1.045128
C     10.62556     14.38384      5.61067        -0.483913      2.053668     -0.784333
C     10.35284     14.38384     15.36773        -0.296669      1.481387      0.466829
C      6.59456      5.61067     10.35284        -0.959659     -0.411334      0.076858
C      6.59456     15.36773     10.62556        -1.347418      0.344516     -0.334209
C     14.38384      5.61067     10.62556         1.303608     -1.132278      0.149419
C     14.38384     15.36773     10.35284         0.401799      0.317300      0.055936
C     10.40319      3.19606      7.29314         0.003094      0.312032     -0.097195
C     10.35913      4.25547      6.23373         0.136677     -0.505601      0.030786
C      0.08601      7.29314      7.29314        -0.054319     -0.309722     -0.431839
C      0.13007      6.23373      6.23373        -0.127378      0.726777      0.045554
C      0.08601      3.19606      3.19606        -0.110389      1.623047      0.174088
C      0.13007      4.25547      4.25547        -0.087417     -0.409982     -1.251713
C     10.40319      7.29314      3.19606         0.016769     -0.422852      0.131414
C     10.35913      6.23373      4.25547         0.259772      0.077856     -0.484697
C      7.29314     10.40319      3.19606        -1.663056      0.005408      0.327359
C      6.23373     10.35913      4.25547         0.652313      0.077888     -0.611026
C      7.29314      0.08601      7.29314        -0.397640     -0.009131     -0.295360
C      6.23373      0.13007      6.23373         0.623001     -0.052656      0.275975
C      3.19606      0.08601      3.19606         0.662343     -0.015105      0.190471
C      4.25547      0.13007      4.25547        -0.375823     -0.060933     -0.486032
C      3.19606     10.40319      7.29314         0.382459      0.018461     -0.320702
C      4.25547     10.35913      6.23373        -0.728601      0.058691      0.375853
C      3.19606      7.29314     10.40319         0.306679     -0.220018     -0.005946
C      4.25547      6.23373     10.35913         0.055003      0.649298      0.094008
C      7.29314      7.29314      0.08601        -0.719562     -0.593822     -0.015289
C      6.23373      6.23373      0.13007         0.800044      1.149086     -0.078910
C      3.19606      3.19606      0.08601         0.806084      0.486804      0.013712
C      4.25547      4.25547      0.13007        -0.329104     -1.705865     -0.118325
C      7.29314      3.19606     10.40319        -0.333760      0.279657     -0.003114
C      6.23373      4.25547     10.35913         0.522136     -0.038525      0.229371
O     10.43466      3.58206      8.50569        -0.047366      0.180638      0.258012
O     10.54374     17.39634      8.50569         0.041006     -0.230895      0.485418
O     10.54374      3.58206     12.47271         0.085775     -0.056474     -0.044009
O     10.43466     17.39634     12.47271        -0.023255     -0.139391     -0.281032
O      8.50569     10.43466      3.58206         0.983314      0.181724      0.390274
O      8.50569     10.54374     17.39634         0.564604      0.083643     -0.226331
O     12.47271     10.54374      3.58206        -0.431828     -0.037812      0.189767
O     12.47271     10.43466     17.39634        -0.527081     -0.070847     -0.200648
O      3.58206      8.50569     10.43466         0.178272      0.441696     -0.031231
O     17.39634      8.50569     10.54374        -0.227750      0.714698      0.041726
O      3.58206     12.47271     10.54374         0.158359     -0.663720      0.024048
O     17.39634     12.47271     10.43466        -0.185404     -0.484979     -0.013400
O      3.58206     10.43466      8.50569         0.219905     -0.058811      0.400248
O     17.39634     10.54374      8.50569        -0.169294      0.036726      0.409665
O      3.58206     10.54374     12.47271         0.142484      0.021011     -0.308852
O     17.39634     10.43466     12.47271         0.066320     -0.050305     -0.089727
O     10.43466      8.50569      3.58206        -0.002328      0.277686      0.178028
O     10.54374      8.50569     17.39634         0.071020      0.441062     -0.183629
O     10.54374     12.47271      3.58206        -0.222720     -0.964839      0.347913
O     10.43466     12.47271     17.39634        -0.085383     -0.448307     -0.244353
O      8.50569      3.58206     10.43466         0.499224      0.195266     -0.013543
O      8.50569     17.39634     10.54374         0.656620     -0.192423      0.023097
O     12.47271      3.58206     10.54374        -0.734758      0.277780      0.036698
O     12.47271     17.39634     10.43466        -0.444886     -0.198463     -0.044395
O     11.90042     11.90042     19.56718        -0.345021     -0.307259      0.258571
O     19.56718     19.56718     19.56718         0.325889      0.310727      0.281314
O     19.56718     11.90042     11.90042         0.278612     -0.278611     -0.141303
O     11.90042     19.56718     11.90042        -0.307633      0.288748     -0.233970
O      9.45224      1.03696      9.45224        -0.056811      0.070692     -0.048850
O      1.03696      9.45224      9.45224         0.034990     -0.072282     -0.073548
O      1.03696      1.03696      1.03696         0.056447      0.137663      0.105817
O      9.45224      9.45224      1.03696        -0.130325     -0.088076      0.105390
Zr     10.48920      2.52580     10.48920         0.141565     -0.162606     -0.160595
Zr     10.48920     18.45260     10.48920        -0.091260      0.178580     -0.040101
Zr     10.48920     10.48920      2.52580         0.325778     -0.310208     -0.197806
Zr     10.48920     10.48920     18.45260         0.001275     -0.083044      0.210515
Zr      2.52580     10.48920     10.48920        -0.063834      0.161519     -0.050296
Zr     18.45260     10.48920     10.48920         0.134513     -0.120868     -0.246672
Ir     12.06072     12.49102     10.46429         0.002805     -0.014315     -0.014727
Ir     11.14531      7.41761     10.33289         0.037841      0.003325     -0.010756
Ir      8.79313      7.40211     11.59378         0.031811     -0.017350     -0.018075
Ir      7.48489     11.66862      7.65101         0.002358     -0.008266      0.006918
Ir     11.59617     12.09730      7.12566         0.002547      0.004880      0.009412
Ir     13.73157      8.97141      7.56903         0.015896      0.012593     -0.011575
Ir     12.50873     13.95355      8.42219        -0.015012     -0.009512     -0.000074
Ir      9.71506     11.26870      5.57230        -0.003489      0.000578     -0.003249
Ir      9.08730     13.47415      7.07440        -0.003190      0.004385      0.004243
Ir      9.29239      9.66308      7.54079        -0.008137      0.000924     -0.013667
Ir     13.24696      7.04360     11.94954         0.011459      0.005519      0.015916
Ir     13.52882      7.02244      9.12362         0.041158      0.012916     -0.006218
Ir     11.00703      7.61140     12.87231         0.029772     -0.005912     -0.022360
Ir     13.61770     11.55586      8.75843        -0.010394      0.006636     -0.000233
Ir     11.50541      9.66603      6.24071        -0.002818     -0.015326     -0.002501
Ir      7.13862      9.21268      8.95089         0.003410     -0.027807     -0.008289
Ir     14.05703     11.41512     11.66775         0.004787      0.011480     -0.009095
Ir     11.64781      9.87824      8.91012         0.008955     -0.009960     -0.015064
Ir      9.42037      9.53944     10.25930         0.011572     -0.010517     -0.003772
Ir     13.85125      9.38814     10.19445         0.008229      0.008406     -0.006084
Ir     13.79886      9.14999     12.92364         0.004132     -0.005026     -0.015045
Ir     11.67842      9.76624     11.58122         0.002146     -0.002401     -0.010502
Ir      9.91278     11.76770      8.98177        -0.000818     -0.004062     -0.003935
Ir      9.01558      7.44542      8.86237         0.036836     -0.011996     -0.026625
Ir     11.48232      7.60328      7.80493         0.055886     -0.020839     -0.022096
Ir      9.23884      9.51693     13.02529         0.010780     -0.012593     -0.006062
Ir      7.53384     13.93543      8.98762        -0.006688     -0.014170      0.006954
Ir     10.91595     14.13623     11.94316        -0.017636     -0.006684      0.016437
Ir     10.13110     14.18432      9.52082        -0.005062     -0.017463      0.000065
Ir      9.80329     11.71829     11.72855        -0.001047     -0.024387     -0.001846
Ir      7.59017     11.61562     10.20931        -0.004888     -0.021508      0.006165
Ir      8.38276     13.78266     11.58505        -0.017191     -0.012025      0.001779
Ir      7.52973     11.62301     12.83120        -0.005166     -0.031473      0.002932
Ir      9.76268     11.64995     14.34521         0.003465     -0.014457     -0.002125
Ir     13.50858     13.87452     12.19516        -0.008684      0.005963     -0.002792
Ir     11.99657     12.06633     13.08996         0.001808     -0.014531     -0.002951
Ir     11.56365      9.82948     14.21711         0.003178     -0.009247     -0.005804
Ir      7.13196      9.42750     11.50990         0.011338     -0.033139     -0.003177
