32
# total energy = -206.53041848 eVH      3.92861     -0.88972     10.00000         0.007375     -0.005065     -0.000000
H      6.49271      6.90647     10.00000        -0.007375      0.005065     -0.000000
H      9.22751     -2.16954     10.00000         0.000804      0.009504      0.000000
H      1.19381      8.18629     10.00000        -0.000804     -0.009504     -0.000000
H      7.68644      3.05939     10.00000        -0.007869     -0.004339     -0.000000
H      2.73488      2.95736     10.00000         0.007869      0.004339     -0.000000
H      1.19380      3.84720     10.00000        -0.000771      0.008643     -0.000000
H      9.22751      2.16955     10.00000         0.000771     -0.008643      0.000000
H      2.73488      9.07603     10.00000         0.008609     -0.004168      0.000000
H      7.68644     -3.05928     10.00000        -0.008609      0.004168     -0.000000
H      6.49263      5.12701     10.00000        -0.007395     -0.005034     -0.000000
H      3.92868      0.88974     10.00000         0.007395      0.005034      0.000000
C      4.52898     -1.79875     10.00000        -0.028394     -0.009860      0.000000
C      5.89234      7.81550     10.00000         0.028394      0.009860      0.000000
C      9.71458     -1.19507     10.00000         0.022910     -0.024022     -0.000000
C      0.70673      7.21182     10.00000        -0.022910      0.024022      0.000000
C      6.59902      2.99392     10.00000         0.007902      0.029662     -0.000000
C      3.82230      3.02283     10.00000        -0.007902     -0.029662      0.000000
C      0.70671      4.82163     10.00000        -0.022135     -0.021157     -0.000000
C      9.71461      1.19512     10.00000         0.022135      0.021157     -0.000000
C      3.82233      9.01061     10.00000        -0.008943      0.032280      0.000000
C      6.59899     -2.99386     10.00000         0.008943     -0.032280     -0.000000
C      5.89230      4.21796     10.00000         0.029488     -0.007646     -0.000000
C      4.52902      1.79879     10.00000        -0.029488      0.007646      0.000000
C      5.91637     -1.78603     10.00000        -0.014187     -0.020221      0.000000
C      4.50495      7.80278     10.00000         0.014187      0.020221     -0.000000
C      9.00988      0.00001     10.00000         0.024213      0.001307     -0.000000
C      1.41144      6.01674     10.00000        -0.024213     -0.001307      0.000000
C      5.91637      1.78606     10.00000        -0.011254      0.020419     -0.000000
C      4.50495      4.23069     10.00000         0.011254     -0.020419     -0.000000
Pd      3.47375      6.01679     10.00000         0.000418     -0.000762     -0.000000
Pd      6.94757     -0.00004     10.00000        -0.000418      0.000762     -0.000000
