35
# total energy = -301.56416092 eVC      6.68346     10.28865      7.64981        -0.023035      0.058602      0.008404
C      8.06979      9.93571      7.57874        -0.097851      0.028482      0.001182
C      9.41829      5.70180      7.64945         0.262592      0.060119      0.012322
C      1.46429      5.35682      7.66846        -0.259771     -0.078061     -0.004682
C      4.19757      0.76786      7.63241         0.030705     -0.047965     -0.001063
C      2.81155      1.12131      7.56232         0.090234     -0.022317      0.016226
C      0.71218      4.16835      7.64348        -0.045409      0.041922      0.010100
C      1.09993      2.79217      7.56909        -0.026199      0.080762      0.009290
C      5.36604      1.55069      7.64628        -0.064070     -0.270311      0.010981
C      5.51461      9.50636      7.66965         0.057053      0.269128      0.005930
C     10.17068      6.88976      7.64160         0.046027     -0.021284     -0.002181
C      9.78299      8.26658      7.57129         0.031664     -0.098449      0.021712
C      0.77136      6.58063      7.64922        -0.026300      0.039443     -0.006214
C      1.25442      7.93012      7.57995        -0.023465     -0.106970      0.005427
C     10.11149      4.47794      7.64313         0.010700     -0.050617     -0.009612
C      9.62824      3.12845      7.56913         0.022550      0.107420      0.007222
C      4.27371     10.16906      7.65013        -0.044408      0.028177      0.000511
C      2.93609      9.65331      7.58094         0.109264      0.024096     -0.000911
C      6.60692      0.88792      7.63794         0.065601     -0.022632     -0.008094
C      7.94491      1.40388      7.56769        -0.110702     -0.022251      0.003364
N      8.80767      0.31044      7.47855         0.033690      0.001104      0.040234
N      0.14042      8.76555      7.48414         0.002225      0.031850      0.042638
N      8.53134      8.69547      7.59797        -0.001290      0.006414     -0.006365
N      2.35131      2.36196      7.59001        -0.000787     -0.008585     -0.004599
N      2.07329     10.74644      7.48721        -0.033833     -0.003736      0.041671
N     10.74319      2.29348      7.48027        -0.001645     -0.035659      0.041577
N      2.56558      8.33270      7.60072         0.022327     -0.019582     -0.002268
N      8.31658      2.72482      7.58540        -0.020284      0.019467     -0.007033
O      5.34693      2.87430      7.62917        -0.162309      0.134615     -0.013197
O      5.53310      8.18264      7.67589         0.178487     -0.127107      0.000305
O      8.09517      5.68555      7.62362        -0.160160      0.180752     -0.005801
O      2.78792      5.37161      7.67617         0.136669     -0.181892      0.005177
Zr      6.53966      4.45766      7.60127        -0.003368     -0.000199     -0.021665
Zr      4.34467      6.59681      7.67545         0.004641      0.006264      0.016544
Zr      0.02582     10.81095      6.87598         0.000458     -0.001002     -0.207133
