152
# total energy = -1005.81014459 eVH     10.35389      5.87395      7.64558         0.163621      0.094798      0.561836
H     10.62451     15.10445      7.64558        -0.111139     -0.150100      0.499110
H     10.62451      5.87395     13.33282         0.548461      0.103531     -0.667216
H     10.35389     15.10445     13.33282         0.042705     -0.168748     -0.448830
H      7.64558     10.35389      5.87395         0.354335      0.032393      0.169052
H      7.64558     10.62451     15.10445         0.781789      0.483019     -0.032886
H     13.33282     10.62451      5.87395        -0.454143      0.343595      0.119072
H     13.33282     10.35389     15.10445        -0.835967     -0.070735      0.013288
H      5.87395      7.64558     10.35389         0.288304      1.131295      0.048834
H     15.10445      7.64558     10.62451        -0.104812      0.481027      0.285665
H      5.87395     13.33282     10.62451         0.175627     -0.668963     -0.093385
H     15.10445     13.33282     10.35389        -0.063715     -0.973040     -0.225728
H      5.87395     10.35389      7.64558         0.219600      0.033441      0.458822
H     15.10445     10.62451      7.64558        -0.137771      0.476049      0.788208
H      5.87395     10.62451     13.33282         0.131953      0.338634     -0.785613
H     15.10445     10.35389     13.33282        -0.074885     -0.038679     -0.669025
H     10.35389      7.64558      5.87395         0.338869      1.122225      0.050669
H     10.62451      7.64558     15.10445         0.699520      0.644195     -0.166119
H     10.62451     13.33282      5.87395        -0.402353     -0.792040      0.252956
H     10.35389     13.33282     15.10445        -0.076923     -0.466763     -0.271919
H      7.64558      5.87395     10.35389         0.946069      0.044987     -0.253519
H      7.64558     15.10445     10.62451         0.817860     -0.184539      0.000469
H     13.33282      5.87395     10.62451        -0.761728      0.185851      0.546912
H     13.33282     15.10445     10.35389        -0.387259     -0.114802     -0.108157
H     12.45634     12.45634     19.01126         0.243017      0.269089     -0.236304
H     19.01126     19.01126     19.01126        -0.266755     -0.245836     -0.251603
H     19.01126     12.45634     12.45634        -0.272557      0.264857      0.223149
H     12.45634     19.01126     12.45634         0.234562     -0.262979      0.270849
C     10.35284      5.61067      6.59456        -0.335559     -0.692130     -0.045060
C     10.62556     15.36773      6.59456         0.089619      0.348136     -0.258886
C     10.62556      5.61067     14.38384        -0.190340     -0.484131     -0.139859
C     10.35284     15.36773     14.38384         0.008214      0.221773      0.421996
C      6.59456     10.35284      5.61067        -0.370098      0.007619     -0.256552
C      6.59456     10.62556     15.36773        -0.415268     -0.071673      0.638284
C     14.38384     10.62556      5.61067        -0.233412     -0.457715     -0.619999
C     14.38384     10.35284     15.36773         1.006138     -0.082714      0.184113
C      5.61067      6.59456     10.35284        -0.628846     -0.121231     -0.347505
C     15.36773      6.59456     10.62556         0.558774      0.002258     -0.281532
C      5.61067     14.38384     10.62556        -0.305977      0.900560      0.036281
C     15.36773     14.38384     10.35284         0.292908      0.983864      0.045633
C      5.61067     10.35284      6.59456        -0.267505     -0.022610     -0.713903
C     15.36773     10.62556      6.59456         0.463823     -0.282133      0.153893
C      5.61067     10.62556     14.38384        -0.603379     -0.229032      0.048856
C     15.36773     10.35284     14.38384         0.417867     -0.044682      1.029669
C     10.35284      6.59456      5.61067        -0.201303     -0.665818     -0.560092
C     10.62556      6.59456     15.36773        -0.153902     -0.156164      0.574695
C     10.62556     14.38384      5.61067         0.211827      1.069520     -0.343307
C     10.35284     14.38384     15.36773        -0.002340      0.767076      0.388920
C      6.59456      5.61067     10.35284        -0.095915     -1.055308      0.190547
C      6.59456     15.36773     10.62556        -0.981340      0.238975      0.089695
C     14.38384      5.61067     10.62556         0.357363     -0.530826     -0.373424
C     14.38384     15.36773     10.35284         0.163969      0.412248     -0.067633
C     10.40319      3.19606      7.29314         0.009682      0.787816     -0.479541
C     10.35913      4.25547      6.23373         0.074616     -0.565938      0.078807
C      0.08601      7.29314      7.29314        -0.052412     -0.592403     -0.286988
C      0.13007      6.23373      6.23373        -0.037256      0.136954      0.557303
C      0.08601      3.19606      3.19606         0.008342      1.396978      0.285362
C      0.13007      4.25547      4.25547         0.041543     -0.726626     -0.201533
C     10.40319      7.29314      3.19606         0.007660     -0.321998      0.279099
C     10.35913      6.23373      4.25547         0.023428      0.036478     -0.728168
C      7.29314     10.40319      3.19606        -0.244891      0.017984      0.564652
C      6.23373     10.35913      4.25547         0.152088      0.049641     -0.066243
C      7.29314      0.08601      7.29314        -0.655740     -0.070681     -0.334281
C      6.23373      0.13007      6.23373         0.735921     -0.116942      0.462540
C      3.19606      0.08601      3.19606         0.969176     -0.019233      0.591865
C      4.25547      0.13007      4.25547        -0.574630     -0.067531     -0.562815
C      3.19606     10.40319      7.29314         0.498482     -0.010220     -0.771682
C      4.25547     10.35913      6.23373        -0.280221      0.072327      0.210005
C      3.19606      7.29314     10.40319         0.288181     -1.275925      0.031676
C      4.25547      6.23373     10.35913        -0.991545      0.053538      0.120668
C      7.29314      7.29314      0.08601        -0.421978     -0.401584     -0.018808
C      6.23373      6.23373      0.13007         0.484628      0.237418      0.000999
C      3.19606      3.19606      0.08601         0.464357      0.384222     -0.037979
C      4.25547      4.25547      0.13007        -0.144008     -0.628061     -0.034688
C      7.29314      3.19606     10.40319        -0.360895      0.427499      0.059098
C      6.23373      4.25547     10.35913         0.282649     -0.717948      0.140820
O     10.43466      3.58206      8.50569        -0.010348      0.077491      0.476547
O     10.54374     17.39634      8.50569         0.051970     -0.132703      0.442648
O     10.54374      3.58206     12.47271         0.033751     -0.118379     -0.170976
O     10.43466     17.39634     12.47271        -0.033184     -0.177251     -0.517374
O      8.50569     10.43466      3.58206         0.260305     -0.021983      0.009031
O      8.50569     10.54374     17.39634         0.694522     -0.004423     -0.163327
O     12.47271     10.54374      3.58206        -0.833651      0.100500      0.095324
O     12.47271     10.43466     17.39634        -0.449811      0.030455     -0.081466
O      3.58206      8.50569     10.43466         0.157924      1.049517     -0.022650
O     17.39634      8.50569     10.54374        -0.159367      0.563675      0.073364
O      3.58206     12.47271     10.54374         0.098609     -0.413062      0.051046
O     17.39634     12.47271     10.43466        -0.149857     -0.531126     -0.027663
O      3.58206     10.43466      8.50569         0.081960     -0.082407      0.621520
O     17.39634     10.54374      8.50569        -0.075069      0.082749      0.481493
O      3.58206     10.54374     12.47271        -0.005471      0.031581     -0.485095
O     17.39634     10.43466     12.47271        -0.239411     -0.042932     -0.657057
O     10.43466      8.50569      3.58206        -0.037813      0.445387      0.141176
O     10.54374      8.50569     17.39634        -0.004923      0.613998     -0.174491
O     10.54374     12.47271      3.58206         0.042475     -1.034959      0.132224
O     10.43466     12.47271     17.39634         0.046536     -0.765052     -0.197222
O      8.50569      3.58206     10.43466         0.548953      0.156987     -0.057880
O      8.50569     17.39634     10.54374         0.507376     -0.189030      0.008741
O     12.47271      3.58206     10.54374        -0.611915      0.204703      0.000546
O     12.47271     17.39634     10.43466        -0.243004      0.059662     -0.042590
O     11.90042     11.90042     19.56718        -0.252791     -0.292961      0.238577
O     19.56718     19.56718     19.56718         0.317599      0.298602      0.279669
O     19.56718     11.90042     11.90042         0.308872     -0.262314     -0.237801
O     11.90042     19.56718     11.90042        -0.236909      0.301735     -0.318958
O      9.45224      1.03696      9.45224        -0.003675      0.084530     -0.102979
O      1.03696      9.45224      9.45224         0.090799     -0.074363     -0.146344
O      1.03696      1.03696      1.03696         0.107862      0.177815      0.039874
O      9.45224      9.45224      1.03696        -0.098778     -0.107717      0.026726
Zr     10.48920      2.52580     10.48920        -0.114833     -0.258286     -0.003069
Zr     10.48920     18.45260     10.48920        -0.086928      0.192217      0.106654
Zr     10.48920     10.48920      2.52580        -0.114093     -0.418434     -0.235478
Zr     10.48920     10.48920     18.45260        -0.214649     -0.081900      0.368994
Zr      2.52580     10.48920     10.48920        -0.364038      0.238734      0.261600
Zr     18.45260     10.48920     10.48920         0.190890      0.001350     -0.161713
Pd     13.61820      8.93557      9.20918        -0.014313     -0.003514      0.017035
Pd      5.67980      9.82642     10.07352        -0.033786      0.024768      0.005045
Pd      6.76279     11.73466     11.67353         0.011544      0.007375      0.003875
Pd     12.19260     13.08440      7.32741        -0.010267     -0.001638     -0.001355
Pd     12.01921      7.84516      7.31594        -0.025858     -0.010072      0.020249
Pd      8.29144      7.04079      6.58415        -0.000577     -0.009004     -0.013466
Pd     10.89745     11.25597      5.58563        -0.028252     -0.014537      0.014450
Pd     14.56703      8.53142      6.75029        -0.028260      0.004225      0.010505
Pd      9.66307     11.79315      7.99592        -0.000502     -0.000880      0.015908
Pd      6.85861      6.79942     12.25694        -0.004121      0.007790      0.022517
Pd      6.37692      7.65163      8.26735         0.025121      0.025163      0.000405
Pd      6.77919      8.62564     14.15066        -0.065608      0.003763      0.009420
Pd     11.52511      6.51733      9.65152        -0.004214     -0.021035      0.022107
Pd      9.69957      9.29029      6.95464        -0.035513     -0.004732      0.055459
Pd      9.01169     13.96932      9.36927         0.003702      0.009946     -0.013285
Pd      9.67004      7.26770     11.68400        -0.039723      0.015283     -0.011779
Pd     10.51395      8.97216      9.61248         0.017447     -0.007601      0.015634
Pd      9.32384     11.38303     10.59810         0.001133      0.027087      0.012212
Pd      8.86764      7.01034      9.15328         0.018296     -0.009561     -0.012947
Pd      8.63807      6.68716     14.15977        -0.002969      0.036083      0.020977
Pd      7.82339      9.24948     11.69585        -0.028733      0.013974      0.064105
Pd     11.97392     10.48185      7.83558        -0.001367     -0.006541     -0.003887
Pd      7.13302     12.04855      9.05275         0.007820     -0.013360     -0.000721
Pd      8.04135      9.57766      8.96499         0.002380     -0.003971      0.097002
Pd     14.07594      6.47212      8.48010        -0.001584      0.000135      0.005937
Pd     12.46163      8.25412     11.51515        -0.001981      0.009396      0.015574
Pd      8.74301     11.45842     13.39641         0.016249      0.052107      0.000347
Pd     13.91525     11.93019      9.02304         0.002934      0.007769     -0.010418
Pd     12.88575     10.59033     13.08338        -0.005432      0.002911     -0.016610
Pd     14.75912     10.36774     11.13861         0.003962      0.010840     -0.007601
Pd     12.07326     10.76580     10.56636        -0.000158      0.021656     -0.012815
Pd     11.45011     13.18233      9.85341         0.006494      0.030405      0.005808
Pd     13.56980     12.84053     11.65826         0.009596      0.009141     -0.002098
Pd     11.05043     12.54039     12.44518         0.013952      0.026741      0.003994
Pd     11.01240     11.27786     14.85050        -0.020598     -0.045146     -0.021536
Pd     10.45575      9.66725     12.46426        -0.006977      0.005793     -0.020980
Pd      9.32821      9.22459     14.74188        -0.090361      0.006171     -0.064172
Pd      8.71420     13.68163     11.99625         0.011864      0.037276     -0.010101
