152
# total energy = -1003.35796551 eVH     10.35389      5.87395      7.64558        -0.137493      0.213321      0.792461
H     10.62451     15.10445      7.64558        -0.462930     -0.070121      1.126384
H     10.62451      5.87395     13.33282         0.150895     -0.028590     -0.800221
H     10.35389     15.10445     13.33282        -0.008883     -0.174991     -0.656353
H      7.64558     10.35389      5.87395         0.577385      0.122634     -0.069880
H      7.64558     10.62451     15.10445         0.789734      0.563361     -0.033199
H     13.33282     10.62451      5.87395        -0.676789      0.045974      0.230884
H     13.33282     10.35389     15.10445        -0.611411     -0.160585     -0.025690
H      5.87395      7.64558     10.35389        -0.027611      1.786809      0.339564
H     15.10445      7.64558     10.62451        -0.028821      0.910927      0.070270
H      5.87395     13.33282     10.62451         0.195148     -0.819431      0.181186
H     15.10445     13.33282     10.35389        -0.003868     -1.109145     -0.110014
H      5.87395     10.35389      7.64558        -0.220267      0.167068      0.968841
H     15.10445     10.62451      7.64558         0.029905      0.794802      1.449658
H      5.87395     10.62451     13.33282        -0.018623      0.450788     -1.405788
H     15.10445     10.35389     13.33282         0.633446      0.087334     -1.021326
H     10.35389      7.64558      5.87395         0.356525      1.387513     -0.036604
H     10.62451      7.64558     15.10445         0.593586      1.136452     -0.023284
H     10.62451     13.33282      5.87395        -0.628896     -0.745804      0.161117
H     10.35389     13.33282     15.10445        -0.080724     -0.422364     -0.165756
H      7.64558      5.87395     10.35389         1.104534     -0.226006     -0.194389
H      7.64558     15.10445     10.62451         0.687982     -0.211717      0.091363
H     13.33282      5.87395     10.62451        -0.974310      0.033944      0.455001
H     13.33282     15.10445     10.35389        -0.323141     -0.090594     -0.033561
H     12.45634     12.45634     19.01126         0.268503      0.231865     -0.248724
H     19.01126     19.01126     19.01126        -0.268059     -0.259527     -0.226182
H     19.01126     12.45634     12.45634        -0.273542      0.254132      0.233430
H     12.45634     19.01126     12.45634         0.257626     -0.271266      0.230778
C     10.35284      5.61067      6.59456        -0.107091     -0.908736     -0.920510
C     10.62556     15.36773      6.59456         0.218088      0.377186     -0.729179
C     10.62556      5.61067     14.38384        -0.234297     -0.774635      0.845292
C     10.35284     15.36773     14.38384         0.024001      0.250305      0.738735
C      6.59456     10.35284      5.61067        -0.878765      0.112555     -0.622924
C      6.59456     10.62556     15.36773        -0.733174      0.186892      0.787029
C     14.38384     10.62556      5.61067         0.731119      0.081542     -0.789777
C     14.38384     10.35284     15.36773         1.235754      0.048071      0.713670
C      5.61067      6.59456     10.35284        -0.836036     -0.906341     -0.044149
C     15.36773      6.59456     10.62556         0.611802      0.088227     -0.089009
C      5.61067     14.38384     10.62556        -0.424015      0.901365     -0.064573
C     15.36773     14.38384     10.35284         0.417069      1.235397     -0.137797
C      5.61067     10.35284      6.59456        -0.255842     -0.014560     -1.179746
C     15.36773     10.62556      6.59456         0.363287     -0.134663     -1.066843
C      5.61067     10.62556     14.38384        -0.483222     -0.036468      1.062464
C     15.36773     10.35284     14.38384         0.091488     -0.038636      1.435253
C     10.35284      6.59456      5.61067        -0.127857     -1.179958     -0.515369
C     10.62556      6.59456     15.36773        -0.043590     -0.950129      0.757442
C     10.62556     14.38384      5.61067        -0.028345      1.109358     -0.773515
C     10.35284     14.38384     15.36773        -0.034321      0.429478      0.284424
C      6.59456      5.61067     10.35284        -0.804463     -1.276967      0.129828
C      6.59456     15.36773     10.62556        -0.801357      0.467328      0.014820
C     14.38384      5.61067     10.62556         0.272320     -0.721704     -0.074399
C     14.38384     15.36773     10.35284         0.129561      0.505370     -0.021394
C     10.40319      3.19606      7.29314        -0.018713      0.291524     -1.082555
C     10.35913      4.25547      6.23373        -0.024421     -0.453961      0.147836
C      0.08601      7.29314      7.29314        -0.051271     -0.905863     -0.299558
C      0.13007      6.23373      6.23373         0.029158      0.419515      0.622605
C      0.08601      3.19606      3.19606         0.007734      0.944393      0.392090
C      0.13007      4.25547      4.25547         0.028550     -0.543989     -0.407411
C     10.40319      7.29314      3.19606        -0.026842     -0.467298      0.218976
C     10.35913      6.23373      4.25547         0.007706      0.241236     -0.573291
C      7.29314     10.40319      3.19606        -0.318076      0.005921      0.181355
C      6.23373     10.35913      4.25547         0.196749     -0.037001     -0.281911
C      7.29314      0.08601      7.29314        -0.954715     -0.091777     -0.341079
C      6.23373      0.13007      6.23373         0.601618     -0.213471      0.412487
C      3.19606      0.08601      3.19606         0.937729     -0.052608      0.294645
C      4.25547      0.13007      4.25547        -0.544497     -0.194688     -0.422968
C      3.19606     10.40319      7.29314         0.387671      0.007186     -0.186520
C      4.25547     10.35913      6.23373        -0.246141     -0.022466      0.241834
C      3.19606      7.29314     10.40319         0.311186     -0.464911      0.014564
C      4.25547      6.23373     10.35913        -0.944427      0.026968      0.093608
C      7.29314      7.29314      0.08601        -0.444493     -0.350420     -0.033627
C      6.23373      6.23373      0.13007         0.729859      0.106417     -0.000066
C      3.19606      3.19606      0.08601         0.807908      0.376278     -0.024164
C      4.25547      4.25547      0.13007        -0.084740     -0.856978     -0.055460
C      7.29314      3.19606     10.40319        -0.488279      0.437214      0.001116
C      6.23373      4.25547     10.35913         0.366279     -0.802667      0.078582
O     10.43466      3.58206      8.50569         0.105334      0.251494      0.860712
O     10.54374     17.39634      8.50569         0.045619     -0.068260      0.317235
O     10.54374      3.58206     12.47271         0.029591      0.027877     -0.365165
O     10.43466     17.39634     12.47271        -0.038467     -0.136198     -0.395589
O      8.50569     10.43466      3.58206         0.514487     -0.033422      0.179709
O      8.50569     10.54374     17.39634         0.837275     -0.052543     -0.210952
O     12.47271     10.54374      3.58206        -0.818816      0.147213      0.210163
O     12.47271     10.43466     17.39634        -0.494168      0.007875     -0.186766
O      3.58206      8.50569     10.43466         0.187874      0.614437     -0.031764
O     17.39634      8.50569     10.54374        -0.149827      0.528869      0.037992
O      3.58206     12.47271     10.54374         0.084369     -0.453410      0.040081
O     17.39634     12.47271     10.43466        -0.154578     -0.544778     -0.033696
O      3.58206     10.43466      8.50569         0.147363     -0.016743      0.346865
O     17.39634     10.54374      8.50569        -0.010195      0.091683      0.329922
O      3.58206     10.54374     12.47271         0.050074      0.053820     -0.331448
O     17.39634     10.43466     12.47271        -0.143993     -0.031057     -0.354377
O     10.43466      8.50569      3.58206        -0.037402      0.588400      0.196393
O     10.54374      8.50569     17.39634        -0.080081      0.787473     -0.186334
O     10.54374     12.47271      3.58206         0.164613     -0.801544      0.202341
O     10.43466     12.47271     17.39634        -0.039879     -0.264678      0.031936
O      8.50569      3.58206     10.43466         0.651623      0.162505     -0.052314
O      8.50569     17.39634     10.54374         0.584523     -0.198467      0.005958
O     12.47271      3.58206     10.54374        -0.739341      0.095600      0.010153
O     12.47271     17.39634     10.43466        -0.546813     -0.136207     -0.036027
O     11.90042     11.90042     19.56718        -0.310073     -0.236245      0.260633
O     19.56718     19.56718     19.56718         0.305252      0.312331      0.229157
O     19.56718     11.90042     11.90042         0.350357     -0.265433     -0.250514
O     11.90042     19.56718     11.90042        -0.301083      0.354899     -0.243709
O      9.45224      1.03696      9.45224        -0.015410      0.128210     -0.100715
O      1.03696      9.45224      9.45224         0.059684     -0.013283     -0.109866
O      1.03696      1.03696      1.03696         0.041084      0.122465      0.090300
O      9.45224      9.45224      1.03696        -0.033783     -0.014373      0.097572
Zr     10.48920      2.52580     10.48920        -0.191025     -0.374166      0.182659
Zr     10.48920     18.45260     10.48920         0.074293      0.067735      0.094044
Zr     10.48920     10.48920      2.52580        -0.186200     -0.246546     -0.346146
Zr     10.48920     10.48920     18.45260         0.097612      0.023803      0.289220
Zr      2.52580     10.48920     10.48920        -0.113861     -0.167217     -0.008828
Zr     18.45260     10.48920     10.48920         0.068431     -0.035219      0.069853
Pd     12.15927      8.39615     10.15880         0.095058     -0.075543     -0.062132
Pd      7.17552      9.50549     10.62011         0.083391     -0.014840      0.013410
Pd      7.02239     11.75203     12.01287        -0.148605      0.077796     -0.029744
Pd     12.08260     13.70776      7.59724        -0.033879     -0.119667     -0.076773
Pd     11.65167      8.01969      7.55923         0.020587     -0.127984     -0.090858
Pd      8.75585      7.48541      7.10045         0.107662      0.048908     -0.011243
Pd     11.64201     11.67613      5.86885         0.037720     -0.100529      0.035586
Pd     14.02973      9.09487      7.67575         0.057604     -0.026046     -0.052769
Pd      9.58772     11.99359      7.82869         0.139263     -0.008327     -0.034930
Pd      7.14696      7.06271     12.04854         0.008635      0.038288      0.036501
Pd      6.80735      7.53619      8.71053        -0.017497      0.087421     -0.030775
Pd      7.25696      9.18218     13.54949         0.087535      0.071903     -0.124150
Pd     11.41027      5.83640      9.23086        -0.001734     -0.002678      0.073730
Pd      9.98347      9.78635      6.43538        -0.023759     -0.001698     -0.082704
Pd      9.03287     14.11931      9.20528        -0.020983      0.024291      0.037195
Pd     11.20683      6.56948     11.74282        -0.104859      0.117924     -0.001526
Pd      9.87907      9.27858      9.19067         0.227283      0.011552     -0.031132
Pd      9.14590     11.45872     10.39581        -0.062105      0.176780      0.005955
Pd      9.17362      6.95912     10.05829        -0.073980      0.112005     -0.068065
Pd      8.89622      7.15692     14.01459        -0.099862     -0.112625     -0.094872
Pd      9.38942      8.89364     11.87963         0.041886     -0.027888     -0.086250
Pd     11.96490     10.74278      8.33778         0.187631     -0.063203      0.140916
Pd      6.96174     12.22331      9.24644         0.047945     -0.074144     -0.094963
Pd      7.74177      9.92989      8.03418         0.024029      0.062465     -0.050214
Pd     13.86509      6.78116      8.75521         0.006057     -0.102374     -0.107002
Pd     13.65095      7.63020     12.23143         0.026902     -0.006872      0.036313
Pd      9.35339     11.28881     13.12955         0.024468     -0.033697     -0.028398
Pd     13.97722     12.40941      8.75896         0.084520      0.000064     -0.026862
Pd     13.42769     10.24901     12.69473        -0.054230      0.024695     -0.029407
Pd     14.10790     10.11745     10.15685        -0.029616     -0.022278     -0.029041
Pd     11.41649     10.69878     11.26357         0.090433     -0.065204      0.079617
Pd     11.33984     13.07723     10.01412         0.034559      0.086490     -0.086546
Pd     13.64672     12.50190     11.40200         0.010471      0.021050     -0.030215
Pd     11.49802     13.08192     12.69326        -0.117128     -0.117943     -0.090773
Pd     11.61986     11.18420     14.47452        -0.021430     -0.012352      0.095436
Pd     11.44771      8.67534     13.39973        -0.005263      0.094537      0.047470
Pd      9.58296      9.59891     15.16318        -0.035026     -0.032010     -0.081749
Pd      9.05903     13.66879     11.83296        -0.055693     -0.030782      0.081453
