32
# total energy = -202.80389473 eVH      4.04652     -0.95344     10.00000        -0.005254      0.003560     -0.000000
H      6.60334      7.10214     10.00000         0.005254     -0.003560     -0.000000
H      9.45231     -2.16759     10.00000        -0.000451     -0.006312      0.000000
H      1.19755      8.31629     10.00000         0.000451      0.006312      0.000000
H      7.80089      3.12103     10.00000         0.005714      0.002777      0.000000
H      2.84897      3.02767     10.00000        -0.005714     -0.002777      0.000000
H      1.19754      3.98117     10.00000         0.001666     -0.008587     -0.000000
H      9.45232      2.16753     10.00000        -0.001666      0.008587     -0.000000
H      2.84903      9.26972     10.00000        -0.008252      0.002847      0.000000
H      7.80083     -3.12102     10.00000         0.008252     -0.002847      0.000000
H      6.60330      5.19521     10.00000         0.006613      0.005736      0.000000
H      4.04656      0.95349     10.00000        -0.006613     -0.005736      0.000000
C      4.64753     -1.86272     10.00000        -0.040507     -0.010794     -0.000000
C      6.00233      8.01142     10.00000         0.040507      0.010794      0.000000
C      9.93926     -1.19246     10.00000         0.029546     -0.029588     -0.000000
C      0.71060      7.34116     10.00000        -0.029546      0.029588      0.000000
C      6.71294      3.05518     10.00000         0.010761      0.040453      0.000000
C      3.93693      3.09352     10.00000        -0.010761     -0.040453     -0.000000
C      0.71060      4.95621     10.00000        -0.028317     -0.022607     -0.000000
C      9.93926      1.19249     10.00000         0.028317      0.022607     -0.000000
C      3.93690      9.20390     10.00000        -0.005360      0.035729      0.000000
C      6.71296     -3.05520     10.00000         0.005360     -0.035729      0.000000
C      6.00236      4.28599     10.00000         0.033641     -0.013337     -0.000000
C      4.64751      1.86271     10.00000        -0.033641      0.013337     -0.000000
C      6.03106     -1.85118     10.00000        -0.003974     -0.016318      0.000000
C      4.61880      7.99988     10.00000         0.003974      0.016318      0.000000
C      9.23750     -0.00006     10.00000         0.016123      0.004663      0.000000
C      1.41236      6.14876     10.00000        -0.016123     -0.004663      0.000000
C      6.03117      1.85123     10.00000        -0.012037      0.011460      0.000000
C      4.61869      4.29747     10.00000         0.012037     -0.011460      0.000000
Au      3.54993      6.14875     10.00000         0.000279     -0.000485      0.000000
Au      7.09994     -0.00005     10.00000        -0.000279      0.000485      0.000000
