26
# total energy = -167.99092597 eVH      3.22327      7.04684      0.00000        -0.014023     -0.004528      0.000000
H      6.00936      2.18579     -0.00000         0.014023      0.004528      0.000000
H      2.18579      3.22327      0.00000         0.004528     -0.014023     -0.000000
H      7.04684      6.00936     -0.00000        -0.004528      0.014023      0.000000
H      6.00936      7.04684     -0.00000         0.014023     -0.004528     -0.000000
H      3.22327      2.18579      0.00000        -0.014023      0.004528      0.000000
H      7.04684      3.22327     -0.00000        -0.004528     -0.014023     -0.000000
H      2.18579      6.00936      0.00000         0.004528      0.014023      0.000000
C      8.51198      1.74095     -0.00000         0.002825      0.010533      0.000000
C      0.72065      7.49168     -0.00000        -0.002825     -0.010533      0.000000
C      7.49168      8.51198      0.00000        -0.010533      0.002825      0.000000
C      1.74095      0.72065     -0.00000         0.010533     -0.002825     -0.000000
C      0.72065      1.74095      0.00000        -0.002825      0.010533      0.000000
C      8.51198      7.49168     -0.00000         0.002825     -0.010533     -0.000000
C      1.74095      8.51198     -0.00000         0.010533      0.002825     -0.000000
C      7.49168      0.72065      0.00000        -0.010533     -0.002825     -0.000000
N      8.03334      3.03581     -0.00000         0.008033     -0.005212      0.000000
N      1.19929      6.19682      0.00000        -0.008033      0.005212      0.000000
N      6.19682      8.03334      0.00000         0.005212      0.008033      0.000000
N      3.03581      1.19929      0.00000        -0.005212     -0.008033     -0.000000
N      1.19929      3.03581      0.00000        -0.008033     -0.005212     -0.000000
N      8.03334      6.19682     -0.00000         0.008033      0.005212      0.000000
N      3.03581      8.03334     -0.00000        -0.005212      0.008033     -0.000000
N      6.19682      1.19929     -0.00000         0.005212     -0.008033      0.000000
Au     -0.00000      4.61632     -0.00000         0.000000      0.000000      0.000000
Au      4.61632      0.00000     -0.00000        -0.000000      0.000000      0.000000
