31
# total energy = -195.18685451 eVH      2.21689      8.01516      7.50000         0.002591     -0.001741      0.000000
H      8.91251      3.11424      7.50000        -0.002591      0.001741      0.000000
H      3.11424      2.21689      7.50000         0.001741      0.002591     -0.000000
H      8.01516      8.91251      7.50000        -0.001741     -0.002591      0.000000
H      1.48518      6.35819      7.50000        -0.000514     -0.000513      0.000000
H      9.64422      4.77121      7.50000         0.000514      0.000513      0.000000
H      4.77121      1.48518      7.50000         0.000513     -0.000514      0.000000
H      6.35819      9.64422      7.50000        -0.000513      0.000514      0.000000
H      4.18009      9.01624      7.50000         0.011568     -0.044824      0.000000
H      6.94931      2.11316      7.50000        -0.011568      0.044824      0.000000
H      2.11316      4.18009      7.50000         0.044824      0.011568      0.000000
H      9.01624      6.94931      7.50000        -0.044824     -0.011568      0.000000
C      8.51161      0.92976      7.50000         0.001871     -0.004312     -0.000000
C      2.61779     10.19964      7.50000        -0.001871      0.004312     -0.000000
C     10.19964      8.51161      7.50000         0.004312      0.001871     -0.000000
C      0.92976      2.61779      7.50000        -0.004312     -0.001871     -0.000000
C      9.19904     10.76238      7.50000         0.001865     -0.010711     -0.000000
C      1.93036      0.36702      7.50000        -0.001865      0.010711      0.000000
C      0.36702      9.19904      7.50000         0.010711      0.001865      0.000000
C     10.76238      1.93036      7.50000        -0.010711     -0.001865      0.000000
C      9.37275      2.10677      7.50000         0.002429     -0.015227     -0.000000
C      1.75665      9.02263      7.50000        -0.002429      0.015227      0.000000
C      9.02263      9.37275      7.50000         0.015227      0.002429      0.000000
C      2.10677      1.75665      7.50000        -0.015227     -0.002429     -0.000000
N      3.96666     10.01898      7.50000        -0.005851      0.042031      0.000000
N      7.16274      1.11042      7.50000         0.005851     -0.042031      0.000000
N      1.11042      3.96666      7.50000        -0.042031     -0.005851      0.000000
N     10.01898      7.16274      7.50000         0.042031      0.005851      0.000000
Ir      0.00000      0.00000      7.50000         0.000000      0.000000      0.000000
Ir      5.56470      0.00000      7.50000         0.000000      0.000000      0.000000
Ir      0.00000      5.56470      7.50000         0.000000      0.000000      0.000000
