16
# total energy = -106.94135577 eVH      2.38799      1.04618      0.00000        -0.000000      0.091103      0.000000
H      2.38799     10.10352      0.00000        -0.000000     -0.091103     -0.000000
C      1.21701      8.32325      0.00000        -0.121243      0.158299      0.000000
C      3.55896      8.32325      0.00000         0.121243      0.158299     -0.000000
C      3.55896      2.82645      0.00000         0.121243     -0.158299     -0.000000
C      1.21701      2.82645      0.00000        -0.121243     -0.158299      0.000000
N      2.38799      9.04687      0.00000        -0.000000      0.106085      0.000000
N      2.38799      2.10283      0.00000        -0.000000     -0.106085     -0.000000
O      1.13353      4.06117      0.00000        -0.029703     -0.029871     -0.000000
O      3.64244      4.06117      0.00000         0.029703     -0.029871      0.000000
O      3.64244      7.08853      0.00000         0.029703      0.029871      0.000000
O      1.13353      7.08853      0.00000        -0.029703      0.029871     -0.000000
O      0.00000      9.09459      0.00000        -0.000000     -0.349345      0.000000
O      0.00000      2.05511      0.00000        -0.000000      0.349345     -0.000000
Ir      0.00000      0.00000      0.00000        -0.000000      0.000000      0.000000
Ir      2.38799      5.57485      0.00000        -0.000000      0.000000      0.000000
