152
# total energy = -1006.00051263 eVH     10.35389      5.87395      7.64558         0.258954      0.035464      0.637360
H     10.62451     15.10445      7.64558        -0.107492     -0.141761      0.515118
H     10.62451      5.87395     13.33282         0.485061      0.121333     -0.583946
H     10.35389     15.10445     13.33282         0.076794     -0.183664     -0.554113
H      7.64558     10.35389      5.87395         0.372049      0.082037      0.165165
H      7.64558     10.62451     15.10445         0.695273      0.471923     -0.040345
H     13.33282     10.62451      5.87395        -0.532283      0.420671      0.075441
H     13.33282     10.35389     15.10445        -0.803570     -0.094451      0.008774
H      5.87395      7.64558     10.35389         0.241420      0.699620     -0.388527
H     15.10445      7.64558     10.62451        -0.095109      0.480753      0.283703
H      5.87395     13.33282     10.62451         0.159303     -0.696690     -0.156998
H     15.10445     13.33282     10.35389        -0.009934     -1.026805     -0.327186
H      5.87395     10.35389      7.64558         0.254756      0.289295      0.731888
H     15.10445     10.62451      7.64558        -0.108405      0.404782      0.760688
H      5.87395     10.62451     13.33282         0.135555      0.328537     -0.691799
H     15.10445     10.35389     13.33282        -0.053238     -0.072436     -0.689720
H     10.35389      7.64558      5.87395         0.390565      1.051982     -0.008609
H     10.62451      7.64558     15.10445         0.536117      0.536810     -0.120277
H     10.62451     13.33282      5.87395        -0.398059     -0.844718      0.187097
H     10.35389     13.33282     15.10445        -0.044750     -0.433558     -0.216785
H      7.64558      5.87395     10.35389         0.849211      0.095305     -0.290254
H      7.64558     15.10445     10.62451         0.836585     -0.197117      0.010583
H     13.33282      5.87395     10.62451        -0.803882      0.195915      0.587242
H     13.33282     15.10445     10.35389        -0.444037     -0.111105     -0.131351
H     12.45634     12.45634     19.01126         0.235379      0.270267     -0.239902
H     19.01126     19.01126     19.01126        -0.262415     -0.240633     -0.261145
H     19.01126     12.45634     12.45634        -0.266828      0.268742      0.218559
H     12.45634     19.01126     12.45634         0.232057     -0.255595      0.278577
C     10.35284      5.61067      6.59456        -0.433696     -0.731544      0.196599
C     10.62556     15.36773      6.59456         0.062202      0.367786     -0.297507
C     10.62556      5.61067     14.38384        -0.332905     -0.362438     -0.304433
C     10.35284     15.36773     14.38384        -0.008965      0.333955      0.542479
C      6.59456     10.35284      5.61067        -0.219392     -0.002762     -0.389368
C      6.59456     10.62556     15.36773        -0.262565     -0.219783      0.808369
C     14.38384     10.62556      5.61067        -0.269121     -0.400573     -0.517448
C     14.38384     10.35284     15.36773         0.977099     -0.055553      0.254907
C      5.61067      6.59456     10.35284        -0.539927      0.001624      0.165737
C     15.36773      6.59456     10.62556         0.525839      0.024597     -0.251104
C      5.61067     14.38384     10.62556        -0.339015      0.973281      0.076972
C     15.36773     14.38384     10.35284         0.317274      1.035774      0.053476
C      5.61067     10.35284      6.59456        -0.179562     -0.310818     -0.620651
C     15.36773     10.62556      6.59456         0.447096     -0.288298      0.118231
C      5.61067     10.62556     14.38384        -0.725036     -0.353213     -0.061867
C     15.36773     10.35284     14.38384         0.385651     -0.061627      1.011296
C     10.35284      6.59456      5.61067        -0.207357     -0.210267     -0.656048
C     10.62556      6.59456     15.36773        -0.267434      0.124313      0.447862
C     10.62556     14.38384      5.61067         0.204863      1.065049     -0.347707
C     10.35284     14.38384     15.36773         0.025679      0.538120      0.436469
C      6.59456      5.61067     10.35284        -0.174395     -0.646562      0.235399
C      6.59456     15.36773     10.62556        -1.022049      0.299575      0.079616
C     14.38384      5.61067     10.62556         0.493296     -0.545400     -0.365010
C     14.38384     15.36773     10.35284         0.214909      0.455566     -0.102348
C     10.40319      3.19606      7.29314         0.008172      0.692777     -0.486069
C     10.35913      4.25547      6.23373         0.085334     -0.728456     -0.017512
C      0.08601      7.29314      7.29314        -0.043960     -0.409982     -0.309687
C      0.13007      6.23373      6.23373        -0.022718      0.082832      0.568502
C      0.08601      3.19606      3.19606        -0.017262      1.251033      0.280575
C      0.13007      4.25547      4.25547         0.049048     -0.776516     -0.152614
C     10.40319      7.29314      3.19606         0.009810     -0.342488      0.352766
C     10.35913      6.23373      4.25547         0.027307      0.012562     -0.891993
C      7.29314     10.40319      3.19606        -0.355379      0.020196      0.565463
C      6.23373     10.35913      4.25547         0.207947      0.053401     -0.120309
C      7.29314      0.08601      7.29314        -0.524150     -0.064353     -0.372688
C      6.23373      0.13007      6.23373         0.680661     -0.048175      0.489617
C      3.19606      0.08601      3.19606         0.676477     -0.036938      0.566172
C      4.25547      0.13007      4.25547        -0.574287     -0.081269     -0.553412
C      3.19606     10.40319      7.29314         0.483223     -0.019607     -0.778167
C      4.25547     10.35913      6.23373        -0.489181      0.032442      0.201733
C      3.19606      7.29314     10.40319         0.285374     -1.257205      0.039103
C      4.25547      6.23373     10.35913        -0.708580      0.101209      0.153239
C      7.29314      7.29314      0.08601        -0.407171     -0.371361     -0.028045
C      6.23373      6.23373      0.13007         0.468492      0.213782     -0.020679
C      3.19606      3.19606      0.08601         0.499803      0.372594     -0.039395
C      4.25547      4.25547      0.13007        -0.150723     -0.650513     -0.034553
C      7.29314      3.19606     10.40319        -0.322134      0.423142      0.075291
C      6.23373      4.25547     10.35913         0.259281     -0.693811      0.137477
O     10.43466      3.58206      8.50569        -0.015039      0.102300      0.507009
O     10.54374     17.39634      8.50569         0.036577     -0.174726      0.482845
O     10.54374      3.58206     12.47271         0.057246     -0.083435     -0.187788
O     10.43466     17.39634     12.47271        -0.038355     -0.182887     -0.564212
O      8.50569     10.43466      3.58206         0.333244      0.003110      0.034762
O      8.50569     10.54374     17.39634         0.632091      0.033531     -0.145171
O     12.47271     10.54374      3.58206        -0.679817      0.082863      0.091961
O     12.47271     10.43466     17.39634        -0.439323      0.026813     -0.111564
O      3.58206      8.50569     10.43466         0.181284      1.032788     -0.047481
O     17.39634      8.50569     10.54374        -0.162256      0.539252      0.076412
O      3.58206     12.47271     10.54374         0.083754     -0.363128      0.048889
O     17.39634     12.47271     10.43466        -0.157573     -0.546009     -0.022762
O      3.58206     10.43466      8.50569         0.075859     -0.062238      0.593004
O     17.39634     10.54374      8.50569        -0.110719      0.065958      0.521938
O      3.58206     10.54374     12.47271         0.055037      0.051575     -0.532757
O     17.39634     10.43466     12.47271        -0.218269     -0.039864     -0.593484
O     10.43466      8.50569      3.58206        -0.039281      0.470669      0.134480
O     10.54374      8.50569     17.39634         0.048504      0.529850     -0.160817
O     10.54374     12.47271      3.58206        -0.002895     -1.006021      0.206575
O     10.43466     12.47271     17.39634         0.042017     -0.733885     -0.174718
O      8.50569      3.58206     10.43466         0.506566      0.146685     -0.054038
O      8.50569     17.39634     10.54374         0.486406     -0.197786      0.013951
O     12.47271      3.58206     10.54374        -0.640607      0.235154      0.008690
O     12.47271     17.39634     10.43466        -0.213732      0.068828     -0.056530
O     11.90042     11.90042     19.56718        -0.239698     -0.289075      0.247569
O     19.56718     19.56718     19.56718         0.310238      0.295151      0.300278
O     19.56718     11.90042     11.90042         0.290269     -0.264924     -0.233243
O     11.90042     19.56718     11.90042        -0.242415      0.290744     -0.335795
O      9.45224      1.03696      9.45224        -0.020404      0.086545     -0.072783
O      1.03696      9.45224      9.45224         0.090934     -0.091473     -0.138637
O      1.03696      1.03696      1.03696         0.089068      0.190090      0.047665
O      9.45224      9.45224      1.03696        -0.111414     -0.100737      0.031285
Zr     10.48920      2.52580     10.48920        -0.131358     -0.290770     -0.036000
Zr     10.48920     18.45260     10.48920        -0.073310      0.214609      0.093103
Zr     10.48920     10.48920      2.52580         0.058065     -0.409457     -0.250963
Zr     10.48920     10.48920     18.45260        -0.271650     -0.090295      0.324141
Zr      2.52580     10.48920     10.48920        -0.376313      0.239536      0.301746
Zr     18.45260     10.48920     10.48920         0.240337     -0.000780     -0.223187
Pd     13.60568      8.98971      9.20171        -0.004228     -0.000320     -0.003862
Pd      5.62857      9.86652     10.12916         0.000755      0.000987     -0.007419
Pd      6.77128     11.84811     11.70927        -0.001184     -0.000749      0.000061
Pd     12.06004     12.99600      7.35975        -0.005285     -0.001598      0.000713
Pd     11.87509      7.73906      7.45469        -0.001335     -0.005498     -0.004427
Pd      8.31594      6.83154      6.53289         0.002244     -0.010291     -0.007414
Pd     10.57343     11.16832      5.65447        -0.018226      0.000309     -0.000930
Pd     14.39902      8.54760      6.72955        -0.002403     -0.000499     -0.002925
Pd      9.66523     11.73005      8.14681         0.000025     -0.002885      0.006778
Pd      6.72982      6.78861     12.33911        -0.002543     -0.002730      0.001897
Pd      6.60969      8.25322      7.89872         0.015664      0.022263     -0.025531
Pd      6.52464      8.49145     14.38771        -0.000256     -0.001402      0.003069
Pd     11.48413      6.51191      9.94946        -0.003213     -0.002618      0.000999
Pd      9.46377      9.19899      7.16940        -0.005718     -0.003918      0.001597
Pd      8.97874     13.99159      9.36095        -0.000715     -0.001364      0.007037
Pd      9.43634      7.36723     11.70025        -0.005108      0.000957     -0.004399
Pd     10.63019      8.96147      9.67504         0.003304     -0.005246     -0.004897
Pd      9.34061     11.56714     10.73468        -0.001128      0.004030      0.005041
Pd      8.86508      7.06989      9.11199        -0.005095      0.001839     -0.005723
Pd      8.55422      6.57999     14.23426         0.000437     -0.000316     -0.001282
Pd      7.62007      9.32097     12.02979        -0.003953     -0.001923      0.005674
Pd     11.94263     10.37532      7.71119        -0.000544     -0.005036     -0.009289
Pd      7.12870     12.01524      9.06711         0.001585     -0.002807     -0.000526
Pd      8.14779      9.62398      9.46754         0.005558     -0.000436      0.011950
Pd     14.01115      6.50070      8.52438        -0.001743     -0.002036      0.000200
Pd     12.62839      8.40735     11.56672        -0.003473      0.000261     -0.002890
Pd      8.76091     11.57171     13.41251        -0.001665     -0.001873      0.005392
Pd     13.87148     11.91281      8.96881        -0.004374     -0.003974     -0.001539
Pd     12.93482     10.70177     13.07516        -0.003274     -0.003644     -0.001889
Pd     14.76485     10.43110     11.11934        -0.005547     -0.005373     -0.001070
Pd     12.05197     10.89750     10.53812        -0.005263     -0.001503     -0.002432
Pd     11.44691     13.34949      9.92732         0.002028      0.002995      0.002323
Pd     13.59745     12.91391     11.62696         0.001459     -0.005459     -0.000463
Pd     11.11426     12.62711     12.54421        -0.000524     -0.000095      0.001811
Pd     10.94368     11.06594     14.81768         0.000658      0.000505      0.000630
Pd     10.50000      9.72229     12.37888        -0.004813     -0.001168     -0.001736
Pd      9.08403      9.14168     14.43405         0.001843      0.000033      0.003207
Pd      8.79997     13.86370     12.06209        -0.003968      0.001017      0.009918
