20
# total energy = -160.58877416 eVC      8.34174      3.99369      7.50000         0.008136      0.004065      0.000000
C      1.42448     -0.00009      7.50000        -0.007053      0.002275      0.000000
C      8.34183     -3.99403      7.50000         0.009865     -0.009281     -0.000000
C      0.71238      1.23370      7.50000        -0.008136     -0.004065      0.000000
C      7.62963      5.22747      7.50000         0.007053     -0.002275      0.000000
C      0.71229      9.22142      7.50000        -0.009865      0.009281     -0.000000
C      7.63615     -2.77180      7.50000         0.011919     -0.020070     -0.000000
C      7.63615      2.77123      7.50000         0.014420      0.028235      0.000000
C      2.83584     -0.00012      7.50000        -0.018511     -0.000046     -0.000000
C      1.41796      7.99919      7.50000        -0.011919      0.020070     -0.000000
C      1.41796      2.45615      7.50000        -0.014420     -0.028235     -0.000000
C      6.21827      5.22750      7.50000         0.018511      0.000046      0.000000
N      7.04790     -1.75277      7.50000         0.061009     -0.105631     -0.000000
N      7.04790      1.75223      7.50000         0.060229      0.104312     -0.000000
N      4.01251     -0.00015      7.50000        -0.127306      0.000176     -0.000000
N      2.00621      6.98016      7.50000        -0.061009      0.105631     -0.000000
N      2.00621      3.47516      7.50000        -0.060229     -0.104312     -0.000000
N      5.04160      5.22753      7.50000         0.127306     -0.000176      0.000000
Pd      6.03611     -0.00020      7.50000         0.000012     -0.000864     -0.000000
Pd      3.01801      5.22758      7.50000        -0.000012      0.000864     -0.000000
