152
# total energy = -1059.90976763 eVH     10.35389      5.87395      7.64558        -0.239507     -0.020140      1.147358
H     10.62451     15.10445      7.64558        -0.008403     -0.099071      0.915733
H     10.62451      5.87395     13.33282        -0.219250      0.095253     -0.792373
H     10.35389     15.10445     13.33282         0.076221     -0.287418     -0.903749
H      7.64558     10.35389      5.87395         0.911615     -0.079113      0.193484
H      7.64558     10.62451     15.10445         0.350248     -0.054617     -0.080668
H     13.33282     10.62451      5.87395        -0.850277      0.173886      0.199437
H     13.33282     10.35389     15.10445        -0.277461     -0.009359     -0.069460
H      5.87395      7.64558     10.35389         0.086618      0.406805     -0.039496
H     15.10445      7.64558     10.62451         0.041541      0.546638     -0.055743
H      5.87395     13.33282     10.62451        -0.012935     -0.975455      0.082379
H     15.10445     13.33282     10.35389        -0.064449     -0.320973     -0.000040
H      5.87395     10.35389      7.64558         0.268543      0.115348      0.425601
H     15.10445     10.62451      7.64558        -0.134193     -0.176630      0.641077
H      5.87395     10.62451     13.33282        -0.115836      0.493988     -0.591863
H     15.10445     10.35389     13.33282         0.279288     -0.668066     -0.790283
H     10.35389      7.64558      5.87395        -0.040598      0.498394      0.340729
H     10.62451      7.64558     15.10445         0.207925      0.773019     -0.053807
H     10.62451     13.33282      5.87395         0.105965     -0.537379      0.202397
H     10.35389     13.33282     15.10445         0.060220     -0.291855     -0.123799
H      7.64558      5.87395     10.35389         0.342286      0.082621     -0.016998
H      7.64558     15.10445     10.62451         0.366741     -0.105297      0.156383
H     13.33282      5.87395     10.62451        -0.312409      0.119693     -0.035778
H     13.33282     15.10445     10.35389        -0.651690     -0.131049      0.139537
H     12.45634     12.45634     19.01126         0.253905      0.270349     -0.230687
H     19.01126     19.01126     19.01126        -0.245081     -0.270115     -0.244349
H     19.01126     12.45634     12.45634        -0.252867      0.267632      0.236243
H     12.45634     19.01126     12.45634         0.288542     -0.236060      0.234674
C     10.35284      5.61067      6.59456         0.401663     -0.435211     -1.468775
C     10.62556     15.36773      6.59456        -0.166630      0.538180     -0.619122
C     10.62556      5.61067     14.38384         0.401233     -0.366080      0.863166
C     10.35284     15.36773     14.38384        -0.229507      0.211831      1.122270
C      6.59456     10.35284      5.61067        -1.355585      0.019291     -0.261891
C      6.59456     10.62556     15.36773        -0.668311      0.059312      0.381741
C     14.38384     10.62556      5.61067         1.258558     -0.148593     -0.598036
C     14.38384     10.35284     15.36773         0.406017     -0.114268      0.349129
C      5.61067      6.59456     10.35284        -0.314091     -0.567932      0.009463
C     15.36773      6.59456     10.62556         0.405864     -1.079730      0.027840
C      5.61067     14.38384     10.62556        -0.098024      1.157498     -0.185436
C     15.36773     14.38384     10.35284         0.464336      0.640024     -0.027127
C      5.61067     10.35284      6.59456        -0.347299     -0.110990     -0.722563
C     15.36773     10.62556      6.59456         0.423851      0.118058     -0.807748
C      5.61067     10.62556     14.38384        -0.389987     -0.189480      1.255530
C     15.36773     10.35284     14.38384         0.296005      0.193704      1.575418
C     10.35284      6.59456      5.61067        -0.052436     -0.743767     -0.682409
C     10.62556      6.59456     15.36773        -0.107398     -0.834674      0.338947
C     10.62556     14.38384      5.61067        -0.429651      0.442254     -0.683996
C     10.35284     14.38384     15.36773        -0.152511      0.590988      0.400589
C      6.59456      5.61067     10.35284        -0.458806     -0.338731      0.079368
C      6.59456     15.36773     10.62556        -0.443585      0.492030      0.041687
C     14.38384      5.61067     10.62556         0.444310     -0.407631      0.008444
C     14.38384     15.36773     10.35284         1.127985      0.535960     -0.068789
C     10.40319      3.19606      7.29314         0.004984      0.601878     -0.341589
C     10.35913      4.25547      6.23373        -0.012879     -0.463933      0.308859
C      0.08601      7.29314      7.29314        -0.015144     -0.342395     -0.486069
C      0.13007      6.23373      6.23373        -0.093815      0.802727      0.077087
C      0.08601      3.19606      3.19606        -0.001318      0.651760      0.273236
C      0.13007      4.25547      4.25547         0.016197     -0.282532     -0.474106
C     10.40319      7.29314      3.19606        -0.067371     -1.121873      0.523752
C     10.35913      6.23373      4.25547        -0.041421      0.393830     -0.177631
C      7.29314     10.40319      3.19606        -1.046453     -0.055566      0.177573
C      6.23373     10.35913      4.25547         0.350099      0.077550     -0.521514
C      7.29314      0.08601      7.29314        -0.388661      0.037285     -0.626413
C      6.23373      0.13007      6.23373         0.180711      0.136660      0.140799
C      3.19606      0.08601      3.19606         0.674827      0.023410      0.173412
C      4.25547      0.13007      4.25547        -0.165346     -0.045728     -0.359204
C      3.19606     10.40319      7.29314         0.384612     -0.022840     -0.858446
C      4.25547     10.35913      6.23373        -0.175373     -0.090244      0.096111
C      3.19606      7.29314     10.40319         0.589871     -0.374289     -0.002249
C      4.25547      6.23373     10.35913        -0.143701      0.170233      0.003588
C      7.29314      7.29314      0.08601        -0.394911     -0.348410     -0.015109
C      6.23373      6.23373      0.13007         0.227585      0.211859     -0.042007
C      3.19606      3.19606      0.08601         0.292237      0.483318     -0.022264
C      4.25547      4.25547      0.13007        -0.394054     -0.214467     -0.028599
C      7.29314      3.19606     10.40319        -0.283038      0.584310     -0.016909
C      6.23373      4.25547     10.35913        -0.005408     -0.160503      0.027836
O     10.43466      3.58206      8.50569        -0.033088      0.113960      0.345796
O     10.54374     17.39634      8.50569         0.075463     -0.140925      0.589352
O     10.54374      3.58206     12.47271         0.025243      0.110114     -0.387336
O     10.43466     17.39634     12.47271         0.088839     -0.051655     -0.350267
O      8.50569     10.43466      3.58206         0.721836     -0.067048      0.037322
O      8.50569     10.54374     17.39634         0.416848      0.046943     -0.057730
O     12.47271     10.54374      3.58206        -0.651653      0.104764      0.201485
O     12.47271     10.43466     17.39634        -0.302376     -0.002541      0.003976
O      3.58206      8.50569     10.43466         0.054146      0.458997     -0.059278
O     17.39634      8.50569     10.54374        -0.060619      0.473587      0.051934
O      3.58206     12.47271     10.54374         0.108200     -0.586125      0.006172
O     17.39634     12.47271     10.43466        -0.161933     -0.725796     -0.066219
O      3.58206     10.43466      8.50569         0.222595     -0.064793      0.783067
O     17.39634     10.54374      8.50569        -0.143117      0.082236      0.652857
O      3.58206     10.54374     12.47271         0.005991     -0.002162     -0.277205
O     17.39634     10.43466     12.47271         0.043714     -0.014233     -0.206308
O     10.43466      8.50569      3.58206        -0.118738      0.600814     -0.082385
O     10.54374      8.50569     17.39634         0.055509      0.499094     -0.113258
O     10.54374     12.47271      3.58206         0.102795     -0.625293      0.137006
O     10.43466     12.47271     17.39634        -0.062981     -0.613314     -0.220691
O      8.50569      3.58206     10.43466         0.399841      0.033632     -0.028603
O      8.50569     17.39634     10.54374         0.627585     -0.147147      0.051476
O     12.47271      3.58206     10.54374        -0.512762      0.123988      0.036888
O     12.47271     17.39634     10.43466        -0.618396     -0.149648      0.026634
O     11.90042     11.90042     19.56718        -0.277139     -0.311984      0.239872
O     19.56718     19.56718     19.56718         0.299575      0.320730      0.296025
O     19.56718     11.90042     11.90042         0.287202     -0.324922     -0.231769
O     11.90042     19.56718     11.90042        -0.319163      0.232493     -0.204065
O      9.45224      1.03696      9.45224        -0.083151      0.075063     -0.072259
O      1.03696      9.45224      9.45224         0.089976     -0.113425     -0.047467
O      1.03696      1.03696      1.03696         0.072967      0.047282      0.106821
O      9.45224      9.45224      1.03696        -0.052367     -0.124411      0.132436
Zr     10.48920      2.52580     10.48920         0.039639     -0.075006      0.052031
Zr     10.48920     18.45260     10.48920        -0.170669      0.261497     -0.328126
Zr     10.48920     10.48920      2.52580         0.118427      0.343158     -0.358648
Zr     10.48920     10.48920     18.45260        -0.069334     -0.173946      0.175065
Zr      2.52580     10.48920     10.48920        -0.240157      0.126328      0.211819
Zr     18.45260     10.48920     10.48920         0.231658     -0.108376      0.040286
Pd      9.36020     14.16774      9.46157         0.025108      0.037278     -0.030398
Pd      8.64823     13.69006     13.02044        -0.001911      0.014559     -0.037698
Pd     11.97579     14.42677      8.78870         0.029003     -0.001101     -0.038716
Pd     12.81807     12.78490     10.57894        -0.021871      0.030869      0.010675
Pd     12.21142      7.10625     12.64864        -0.039416     -0.006526     -0.029142
Pd     11.28841     14.75107     11.59519        -0.037401      0.041364     -0.044710
Pd     10.16117     12.41347     11.21854        -0.024832      0.023070     -0.056056
Pd     13.45783     12.12588      7.96241         0.013284      0.025084     -0.000865
Pd     11.44343     11.53811      6.13806         0.017529      0.008414     -0.019560
Pd      7.82232      8.59779      7.59648         0.006142     -0.011885     -0.034812
Pd      8.75734     11.73347      6.93585        -0.024313     -0.015380     -0.026043
Pd     10.30605      9.45155      8.16607         0.011496      0.006806     -0.014534
Pd      8.50003     14.42366      6.94341         0.024109     -0.003460     -0.030367
Pd     12.33798      9.02541      6.58345         0.024818      0.004400      0.008561
Pd      9.71567      9.57728      5.58409         0.015217      0.016445     -0.013908
Pd      6.87181      9.48796     12.18340        -0.006419     -0.030292     -0.011569
Pd     12.22451      6.64535      7.82529        -0.001407      0.025445      0.027881
Pd      5.97015     10.52964      9.74219         0.007515     -0.039521     -0.015398
Pd      7.53634      7.07238     13.00939         0.041040      0.027098      0.161508
Ir     11.88224      9.69442     13.05863        -0.042413      0.012082      0.025603
Ir     13.62228      8.95064     11.41535        -0.010137      0.017148      0.001592
Ir      9.44700      8.76743     13.74576        -0.014895      0.041690      0.048125
Ir     10.59818     10.94291     14.79948        -0.027957     -0.014913      0.009863
Ir      7.34051     12.06734     11.39542        -0.034652     -0.012623     -0.035198
Ir     14.73927     10.77944     10.01380        -0.018970      0.014000      0.022827
Ir     12.22546     10.43035      9.65828         0.005310      0.003573     -0.000390
Ir      8.77576     11.02625     13.06237         0.007841     -0.003553     -0.012323
Ir     10.19047      9.79749     11.28007        -0.023908      0.028969     -0.027170
Ir     13.85876     11.33263     12.32547        -0.053501      0.010672      0.018750
Ir     11.80927     12.31395     13.12530        -0.067814     -0.017489     -0.002417
Ir      8.55460     11.04033      9.44264        -0.018015      0.038567     -0.009118
Ir     11.62299      7.93629     10.03419         0.009800      0.036076      0.015199
Ir      7.19538     12.92875      8.69683         0.019418      0.037378      0.007268
Ir      9.51068      6.98718      9.05374         0.004865      0.003135     -0.005949
Ir      8.11099      8.70881     10.15320        -0.031589      0.042061     -0.024372
Ir     10.77486     12.06903      8.59210        -0.003744      0.018528     -0.038266
Ir      9.67114      7.32258     11.60358        -0.071617      0.035655      0.028634
Ir     13.71193      8.64471      8.75654        -0.019052      0.029331      0.042005
