152
# total energy = -1024.32952459 eVH     10.35389      5.87395      7.64558         0.473477      0.037490      0.746800
H     10.62451     15.10445      7.64558         0.022450     -0.191617      0.598130
H     10.62451      5.87395     13.33282         0.100606      0.159805     -0.573228
H     10.35389     15.10445     13.33282        -0.437900     -0.046737     -0.770890
H      7.64558     10.35389      5.87395         0.340002      0.013510      0.167686
H      7.64558     10.62451     15.10445         0.896399     -0.319648     -0.005285
H     13.33282     10.62451      5.87395        -0.755894     -0.056411      0.156583
H     13.33282     10.35389     15.10445        -0.874734     -0.399818      0.199222
H      5.87395      7.64558     10.35389         0.200976      0.664607     -0.173801
H     15.10445      7.64558     10.62451        -0.139308      0.395016     -0.038029
H      5.87395     13.33282     10.62451         0.160559     -0.526966     -0.116304
H     15.10445     13.33282     10.35389        -0.085120     -1.177549      0.030884
H      5.87395     10.35389      7.64558         0.134379      0.147316      0.522201
H     15.10445     10.62451      7.64558         0.003168      0.114159      1.027807
H      5.87395     10.62451     13.33282         0.099709     -0.053161     -0.423502
H     15.10445     10.35389     13.33282        -0.130718     -0.169946     -0.526212
H     10.35389      7.64558      5.87395         0.052615      0.976311      0.233447
H     10.62451      7.64558     15.10445         0.007320      0.275321     -0.173202
H     10.62451     13.33282      5.87395        -0.094355     -0.414856      0.319253
H     10.35389     13.33282     15.10445        -0.452716     -0.627451     -0.014673
H      7.64558      5.87395     10.35389         0.485720      0.112695     -0.008583
H      7.64558     15.10445     10.62451         0.904450     -0.248522     -0.086437
H     13.33282      5.87395     10.62451        -0.585484      0.128226     -0.074742
H     13.33282     15.10445     10.35389        -0.609411     -0.055672      0.230454
H     12.45634     12.45634     19.01126         0.236704      0.277178     -0.235954
H     19.01126     19.01126     19.01126        -0.251365     -0.246830     -0.242932
H     19.01126     12.45634     12.45634        -0.263982      0.266714      0.220725
H     12.45634     19.01126     12.45634         0.234073     -0.265196      0.240492
C     10.35284      5.61067      6.59456        -0.195348     -0.643242      0.070246
C     10.62556     15.36773      6.59456        -0.029465      0.382077     -0.787120
C     10.62556      5.61067     14.38384        -0.008426     -0.061341      0.693003
C     10.35284     15.36773     14.38384         0.156870      0.722194      0.192200
C      6.59456     10.35284      5.61067        -0.354968     -0.021494     -0.285976
C      6.59456     10.62556     15.36773        -1.030034      0.327128      0.339558
C     14.38384     10.62556      5.61067         0.412786      0.339050     -0.633818
C     14.38384     10.35284     15.36773         0.989605     -0.002993      0.311542
C      5.61067      6.59456     10.35284        -0.366192     -0.408947      0.340828
C     15.36773      6.59456     10.62556         0.193331     -0.514406      0.026294
C      5.61067     14.38384     10.62556        -0.196873      0.592096      0.013289
C     15.36773     14.38384     10.35284         0.346784      0.046553     -0.163682
C      5.61067     10.35284      6.59456        -0.318999     -0.074024     -0.979592
C     15.36773     10.62556      6.59456         0.814723     -0.329671     -0.959989
C      5.61067     10.62556     14.38384        -0.470844      0.018099      0.277075
C     15.36773     10.35284     14.38384         0.663135     -0.096856      1.088192
C     10.35284      6.59456      5.61067        -0.248468     -0.583457     -0.876492
C     10.62556      6.59456     15.36773         0.052666     -0.283249      0.061579
C     10.62556     14.38384      5.61067         0.094682      1.199865     -0.432773
C     10.35284     14.38384     15.36773         0.233118      0.139100      0.709426
C      6.59456      5.61067     10.35284        -0.283429     -0.736303      0.096808
C      6.59456     15.36773     10.62556        -1.205711      0.271422      0.113405
C     14.38384      5.61067     10.62556         0.960914     -0.287872      0.029457
C     14.38384     15.36773     10.35284        -0.521060      0.772131     -0.382173
C     10.40319      3.19606      7.29314        -0.019141      0.843056     -0.394866
C     10.35913      4.25547      6.23373         0.053279     -0.479002      0.560658
C      0.08601      7.29314      7.29314        -0.018966     -0.469801     -0.347526
C      0.13007      6.23373      6.23373        -0.020396      0.017655      0.097889
C      0.08601      3.19606      3.19606         0.002988      1.241274      0.190243
C      0.13007      4.25547      4.25547        -0.049754     -0.217307     -0.212458
C     10.40319      7.29314      3.19606        -0.005710     -1.029157      0.382931
C     10.35913      6.23373      4.25547         0.030771      0.464979     -0.650384
C      7.29314     10.40319      3.19606        -0.346183      0.039590      0.751799
C      6.23373     10.35913      4.25547         0.190795      0.085693     -0.103831
C      7.29314      0.08601      7.29314        -0.600323     -0.022796     -0.266685
C      6.23373      0.13007      6.23373         0.383656     -0.073949      0.471678
C      3.19606      0.08601      3.19606         0.946686     -0.009494      0.302101
C      4.25547      0.13007      4.25547        -0.112894     -0.040111     -0.509794
C      3.19606     10.40319      7.29314         0.444828     -0.007660     -0.852123
C      4.25547     10.35913      6.23373        -0.265973      0.102721      0.253050
C      3.19606      7.29314     10.40319         0.497172     -1.324379     -0.043515
C      4.25547      6.23373     10.35913        -0.443885      0.795838      0.083157
C      7.29314      7.29314      0.08601        -0.400282     -0.222395     -0.005447
C      6.23373      6.23373      0.13007         0.159373      0.146233     -0.008465
C      3.19606      3.19606      0.08601         0.247959      0.261270     -0.018526
C      4.25547      4.25547      0.13007        -0.111071     -0.053697      0.014478
C      7.29314      3.19606     10.40319        -0.370502      0.662555      0.008683
C      6.23373      4.25547     10.35913         1.114182     -0.004607      0.031511
O     10.43466      3.58206      8.50569        -0.028767      0.052600      0.443438
O     10.54374     17.39634      8.50569        -0.005653     -0.093106      0.440455
O     10.54374      3.58206     12.47271         0.042692     -0.098200     -0.139332
O     10.43466     17.39634     12.47271        -0.057746     -0.050816     -0.474996
O      8.50569     10.43466      3.58206         0.309823     -0.032503     -0.035475
O      8.50569     10.54374     17.39634         0.686315      0.026013     -0.177364
O     12.47271     10.54374      3.58206        -0.759007     -0.039690      0.148074
O     12.47271     10.43466     17.39634        -0.383821     -0.025969     -0.011019
O      3.58206      8.50569     10.43466         0.148644      1.082231     -0.014721
O     17.39634      8.50569     10.54374        -0.091706      0.416622      0.061374
O      3.58206     12.47271     10.54374         0.068511     -0.406033      0.039232
O     17.39634     12.47271     10.43466        -0.162927     -0.689279     -0.001676
O      3.58206     10.43466      8.50569         0.041796     -0.072212      0.718469
O     17.39634     10.54374      8.50569        -0.069214      0.044374      0.343283
O      3.58206     10.54374     12.47271        -0.010842      0.031137     -0.276388
O     17.39634     10.43466     12.47271        -0.246164      0.011391     -0.718695
O     10.43466      8.50569      3.58206         0.113685      0.827011      0.197226
O     10.54374      8.50569     17.39634         0.036525      0.662316     -0.158646
O     10.54374     12.47271      3.58206        -0.004326     -1.016878      0.197341
O     10.43466     12.47271     17.39634        -0.028439     -0.900764     -0.201683
O      8.50569      3.58206     10.43466         0.538464      0.111586     -0.017154
O      8.50569     17.39634     10.54374         0.520993     -0.206345     -0.011951
O     12.47271      3.58206     10.54374        -0.466035      0.156790      0.056691
O     12.47271     17.39634     10.43466        -0.399040      0.031282     -0.007599
O     11.90042     11.90042     19.56718        -0.270141     -0.326279      0.257175
O     19.56718     19.56718     19.56718         0.281920      0.287239      0.286010
O     19.56718     11.90042     11.90042         0.295587     -0.302947     -0.201770
O     11.90042     19.56718     11.90042        -0.269522      0.282370     -0.247298
O      9.45224      1.03696      9.45224        -0.082335      0.049716     -0.056807
O      1.03696      9.45224      9.45224         0.036477     -0.163865     -0.116959
O      1.03696      1.03696      1.03696         0.011666      0.116515      0.208097
O      9.45224      9.45224      1.03696        -0.063847     -0.085853      0.126405
Zr     10.48920      2.52580     10.48920        -0.038373     -0.117878     -0.168774
Zr     10.48920     18.45260     10.48920         0.020048      0.224486     -0.029226
Zr     10.48920     10.48920      2.52580        -0.122831     -0.181594     -0.538379
Zr     10.48920     10.48920     18.45260        -0.040460      0.021887      0.466041
Zr      2.52580     10.48920     10.48920        -0.363184      0.296576      0.145441
Zr     18.45260     10.48920     10.48920         0.203450      0.046620     -0.227590
Pd      8.50544      9.85695     13.23744        -0.066034     -0.050724     -0.021162
Pd     10.52874      9.48890     10.23137        -0.052344      0.061438      0.009932
Pd     13.25806      8.72249     12.45866        -0.021905      0.028874      0.028904
Pd     10.41767     10.68662     15.07385        -0.041355      0.014247     -0.017426
Pd     12.92664     11.35315     13.49666        -0.042280     -0.049330      0.015581
Pd     14.89526     10.68742     11.32479         0.022268     -0.008076      0.004460
Pd      6.84608      7.74349     12.40893         0.002915     -0.009042     -0.008212
Pd      9.21452      7.24540      9.53901         0.008481     -0.049685     -0.013042
Pd      9.52507      7.56316     12.26259         0.028356     -0.004247     -0.015514
Pd     11.74132      7.15302     10.88380         0.002173     -0.023193      0.024326
Pd     11.62014      7.83958      8.31075        -0.009701     -0.000224     -0.016785
Pd      7.15461     11.73629     11.58829         0.010840     -0.029937     -0.023863
Pd      9.23231     14.32052      9.32545         0.038275      0.006197     -0.005735
Pd      8.13354     12.38349     14.15085         0.023702     -0.010929     -0.020138
Pd     14.21212     14.22931      8.33034        -0.024044     -0.041877      0.037826
Pd     11.71410     13.34821      8.81540        -0.066312     -0.012880      0.036132
Pd     14.09586     11.65562      8.97686         0.057405     -0.016066     -0.030820
Pd      8.72534     13.95877     12.10008         0.006070      0.002371     -0.010844
Pd     12.19970     13.93351     13.96032         0.004078      0.047116      0.031946
Pd     11.37453     14.11050     11.34539         0.024627     -0.017843     -0.034374
Pd     14.00509     13.36737     12.08655         0.044230      0.025444     -0.018612
Pd     12.28480     11.56291     10.89227        -0.013223      0.000689     -0.006453
Pd     12.94934     12.63527      6.60010         0.014221     -0.015553     -0.004319
Pd     13.94840      8.84523      7.57924        -0.009735      0.011968     -0.007583
Pd      6.97320      8.48023      8.45811        -0.014523     -0.021635     -0.012665
Pd      5.55354     10.04798     10.14650         0.000538     -0.007782     -0.026181
Pd      9.39351      9.47693      7.51938        -0.023627     -0.011293      0.016161
Pd      8.49432      6.98852      6.94969         0.004074      0.010059     -0.042654
Pd      9.65090     11.94537     10.56914        -0.009057     -0.041934     -0.082991
Pd     11.78832     10.63946      8.07444        -0.001543     -0.005939     -0.005196
Pd     11.76044      8.95804      5.89347        -0.014042     -0.004692     -0.028781
Pd     10.54013     11.33977      5.77448         0.030569      0.007076     -0.074867
Ir     10.97688      9.71274     12.71917        -0.050583      0.038593      0.016225
Ir     13.17281      9.29234      9.95585         0.016489     -0.003603      0.045251
Ir     10.49099     12.16838     12.93240         0.048431     -0.016957     -0.004636
Ir      7.72354     11.02311      9.08060         0.059674      0.053710      0.030004
Ir      9.56425     12.08986      7.99937        -0.073610     -0.014315      0.112168
Ir      8.04383      9.27266     10.77401         0.027263     -0.048908     -0.003074
