152
# total energy = -1022.88388812 eVH     10.35389      5.87395      7.64558         0.472752      0.026604      0.878463
H     10.62451     15.10445      7.64558        -0.049683      0.039358      0.771202
H     10.62451      5.87395     13.33282         0.145649      0.116719     -0.609757
H     10.35389     15.10445     13.33282        -0.248766     -0.082450     -0.557683
H      7.64558     10.35389      5.87395         0.329817     -0.033638      0.189552
H      7.64558     10.62451     15.10445         0.618941     -0.194361     -0.140707
H     13.33282     10.62451      5.87395        -0.834993     -0.313550      0.173480
H     13.33282     10.35389     15.10445        -0.449543     -0.082494     -0.067295
H      5.87395      7.64558     10.35389         0.136111      1.102864     -0.175609
H     15.10445      7.64558     10.62451        -0.170180      0.405586     -0.086393
H      5.87395     13.33282     10.62451         0.143810     -0.409895     -0.072610
H     15.10445     13.33282     10.35389        -0.077723     -0.969718     -0.178878
H      5.87395     10.35389      7.64558         0.130226      0.043551      0.485945
H     15.10445     10.62451      7.64558         0.108812     -0.196351      0.837246
H      5.87395     10.62451     13.33282         0.262670     -0.032702     -0.394435
H     15.10445     10.35389     13.33282        -0.153320      0.014321     -0.621597
H     10.35389      7.64558      5.87395         0.061359      0.889095      0.112525
H     10.62451      7.64558     15.10445         0.026003      0.541890     -0.146041
H     10.62451     13.33282      5.87395         0.047304     -0.594579      0.185204
H     10.35389     13.33282     15.10445        -0.254877     -0.898088     -0.112094
H      7.64558      5.87395     10.35389         0.522231      0.049326     -0.129339
H      7.64558     15.10445     10.62451         0.920357     -0.211296      0.278160
H     13.33282      5.87395     10.62451        -0.439343      0.185348     -0.059499
H     13.33282     15.10445     10.35389        -1.002729     -0.104902      0.250569
H     12.45634     12.45634     19.01126         0.265838      0.257607     -0.225315
H     19.01126     19.01126     19.01126        -0.247355     -0.235129     -0.262246
H     19.01126     12.45634     12.45634        -0.240088      0.271077      0.239336
H     12.45634     19.01126     12.45634         0.211491     -0.282147      0.252823
C     10.35284      5.61067      6.59456        -0.111209     -0.448990     -0.364119
C     10.62556     15.36773      6.59456         0.021801      0.352410     -1.154472
C     10.62556      5.61067     14.38384        -0.031882     -0.215333      0.730802
C     10.35284     15.36773     14.38384         0.167449      0.779491      0.164483
C      6.59456     10.35284      5.61067        -0.407213     -0.039733     -0.177168
C      6.59456     10.62556     15.36773        -0.790300      0.153834      0.349688
C     14.38384     10.62556      5.61067         0.581284      0.291161     -0.376484
C     14.38384     10.35284     15.36773         0.721618     -0.119150      0.429425
C      5.61067      6.59456     10.35284        -0.421035     -0.726108      0.291218
C     15.36773      6.59456     10.62556         0.196867     -0.465273      0.047411
C      5.61067     14.38384     10.62556        -0.251541      0.382231     -0.026707
C     15.36773     14.38384     10.35284         0.408302      0.142162      0.173802
C      5.61067     10.35284      6.59456        -0.308301     -0.017139     -0.889625
C     15.36773     10.62556      6.59456         0.579698     -0.168804     -1.236920
C      5.61067     10.62556     14.38384        -0.450548      0.006586      0.865866
C     15.36773     10.35284     14.38384         0.518080     -0.183521      1.247004
C     10.35284      6.59456      5.61067        -0.038720     -0.933599     -0.659572
C     10.62556      6.59456     15.36773         0.042687     -0.641657      0.287983
C     10.62556     14.38384      5.61067         0.049794      1.226326     -0.685101
C     10.35284     14.38384     15.36773         0.109404      0.610986      0.644783
C      6.59456      5.61067     10.35284        -0.202576     -0.881539      0.127937
C      6.59456     15.36773     10.62556        -1.714073      0.487755      0.046733
C     14.38384      5.61067     10.62556         0.590004     -0.230105     -0.007727
C     14.38384     15.36773     10.35284         0.134625      0.561917     -0.244361
C     10.40319      3.19606      7.29314         0.014858      0.894743     -0.255584
C     10.35913      4.25547      6.23373        -0.056490     -0.372657      0.601762
C      0.08601      7.29314      7.29314        -0.008950     -0.241254     -0.469367
C      0.13007      6.23373      6.23373         0.003238      0.115989      0.206984
C      0.08601      3.19606      3.19606        -0.016714      0.649641      0.185736
C      0.13007      4.25547      4.25547        -0.088800     -0.198577     -0.169811
C     10.40319      7.29314      3.19606        -0.002654     -0.694038      0.525391
C     10.35913      6.23373      4.25547        -0.014359      0.493440     -0.429146
C      7.29314     10.40319      3.19606        -0.338118      0.023608      0.877761
C      6.23373     10.35913      4.25547         0.212750      0.013181     -0.143773
C      7.29314      0.08601      7.29314        -0.309770     -0.045640     -0.280215
C      6.23373      0.13007      6.23373         0.272348     -0.057923      0.298894
C      3.19606      0.08601      3.19606         0.449860     -0.051478      1.283300
C      4.25547      0.13007      4.25547        -0.114597     -0.027738     -0.462615
C      3.19606     10.40319      7.29314         0.699276      0.013913     -0.266519
C      4.25547     10.35913      6.23373        -0.135330      0.030592      0.103420
C      3.19606      7.29314     10.40319         0.607903     -1.271757      0.023030
C      4.25547      6.23373     10.35913        -0.709554      0.849369      0.054154
C      7.29314      7.29314      0.08601        -0.649388     -0.174235     -0.021577
C      6.23373      6.23373      0.13007         0.173803      0.267707     -0.007402
C      3.19606      3.19606      0.08601         0.242119      0.253334     -0.019277
C      4.25547      4.25547      0.13007        -0.056560     -0.037113      0.011330
C      7.29314      3.19606     10.40319        -0.370916      0.813718      0.014664
C      6.23373      4.25547     10.35913         0.885181     -0.158782      0.008392
O     10.43466      3.58206      8.50569        -0.049512      0.036567      0.326516
O     10.54374     17.39634      8.50569        -0.024092     -0.180132      0.600267
O     10.54374      3.58206     12.47271         0.054443      0.060450     -0.323488
O     10.43466     17.39634     12.47271        -0.023009     -0.126125     -0.584637
O      8.50569     10.43466      3.58206         0.373687     -0.025518     -0.018033
O      8.50569     10.54374     17.39634         0.471361      0.052492     -0.142356
O     12.47271     10.54374      3.58206        -0.295998      0.046926     -0.070472
O     12.47271     10.43466     17.39634        -0.850671      0.019153     -0.226763
O      3.58206      8.50569     10.43466         0.044491      0.928674      0.037745
O     17.39634      8.50569     10.54374        -0.041111      0.340344      0.077910
O      3.58206     12.47271     10.54374         0.063162     -0.421936      0.064286
O     17.39634     12.47271     10.43466        -0.171024     -0.787692      0.022549
O      3.58206     10.43466      8.50569        -0.055213     -0.066450      0.226050
O     17.39634     10.54374      8.50569        -0.136360      0.043635      0.463988
O      3.58206     10.54374     12.47271        -0.014474     -0.050364     -0.886374
O     17.39634     10.43466     12.47271        -0.198022      0.046088     -0.772295
O     10.43466      8.50569      3.58206         0.045547      0.679023      0.189486
O     10.54374      8.50569     17.39634         0.053824      0.439603     -0.081082
O     10.54374     12.47271      3.58206        -0.007735     -0.735766      0.225876
O     10.43466     12.47271     17.39634         0.047121     -0.847390     -0.272064
O      8.50569      3.58206     10.43466         0.486496      0.071208     -0.037954
O      8.50569     17.39634     10.54374         0.650334     -0.251825     -0.060111
O     12.47271      3.58206     10.54374        -0.482970      0.163400      0.039570
O     12.47271     17.39634     10.43466        -0.526312     -0.035060     -0.028506
O     11.90042     11.90042     19.56718        -0.303787     -0.312115      0.264664
O     19.56718     19.56718     19.56718         0.286325      0.272444      0.321030
O     19.56718     11.90042     11.90042         0.277146     -0.330348     -0.243776
O     11.90042     19.56718     11.90042        -0.230689      0.290129     -0.241712
O      9.45224      1.03696      9.45224        -0.075191      0.047937     -0.066653
O      1.03696      9.45224      9.45224         0.052358     -0.146046     -0.059878
O      1.03696      1.03696      1.03696         0.040101      0.035739      0.188405
O      9.45224      9.45224      1.03696        -0.042097     -0.091641      0.123192
Zr     10.48920      2.52580     10.48920        -0.005946     -0.075398     -0.026235
Zr     10.48920     18.45260     10.48920         0.059961      0.305718     -0.072020
Zr     10.48920     10.48920      2.52580        -0.093366      0.010865     -0.375462
Zr     10.48920     10.48920     18.45260        -0.134641     -0.149565      0.330354
Zr      2.52580     10.48920     10.48920        -0.358510      0.313532     -0.455339
Zr     18.45260     10.48920     10.48920         0.248059      0.030754     -0.271497
Pd      9.03233     10.24828     13.32825        -0.011053     -0.009113      0.013305
Pd     10.57740      9.71902     10.95257         0.019605     -0.009519     -0.036963
Pd     13.77112      8.53499     12.69051         0.000056      0.001815     -0.011089
Pd     11.00233     11.06534     15.00902        -0.004194     -0.014710      0.000202
Pd     12.86590     11.17363     13.00558         0.014033      0.009290      0.017382
Pd     15.00048     10.94298     11.34182         0.002210      0.018810     -0.008143
Pd      6.65075      7.44881     12.34342        -0.005955      0.023074      0.001115
Pd      9.23567      7.27056     10.10017         0.008481      0.010185     -0.035500
Pd      9.27111      7.59843     12.78077         0.005859     -0.015627     -0.015713
Pd     11.70394      7.28923     11.46053         0.000476      0.001413     -0.016283
Pd     11.42885      7.99169      8.85903         0.026827     -0.000527     -0.013100
Pd      7.26159     11.83428     11.95007         0.003518     -0.010648     -0.020640
Pd      8.90929     14.67273      9.33293         0.038470      0.002420      0.017518
Pd      8.41616     12.64746     14.32092        -0.005387     -0.008819      0.002996
Pd     13.55059     14.11224      8.54611         0.083477      0.023523     -0.042296
Pd     11.00786     13.34535      8.52661         0.068107      0.034291      0.039722
Pd     14.10483     11.54320      8.92986        -0.002556      0.019331     -0.010075
Pd      8.62366     14.10173     12.10167         0.006952      0.000396      0.002134
Pd     12.24089     13.70992     14.03214        -0.010080     -0.001149      0.001040
Pd     11.16326     14.42690     11.16094         0.033582     -0.007142      0.045741
Pd     14.04523     13.55834     12.16715        -0.009102      0.016044     -0.001213
Pd     12.30497     12.14131     10.66905         0.013148     -0.027034      0.008764
Pd     12.69068     12.35888      6.70740         0.014094      0.031719     -0.016559
Pd     13.69899      8.94092      7.94293         0.026380      0.003054     -0.002317
Pd      6.87459      8.47318      8.84378         0.010068      0.014431      0.002595
Pd      5.52606      9.95146     11.23659         0.021904      0.023728     -0.051259
Pd      9.17451      9.74471      8.31327         0.018326     -0.028740     -0.014565
Pd      8.81942      7.25468      7.43515        -0.028288     -0.021176     -0.026312
Pd      9.53113     12.08468     10.41981         0.007738      0.004490     -0.032542
Pd     11.56649     10.71168      8.54551         0.018509      0.009980     -0.021796
Pd     11.27981      9.20938      6.43737         0.037214     -0.015970     -0.012911
Pd      9.93716     11.52728      6.37145         0.030945     -0.022327     -0.008559
Ir     11.34960      9.11086     13.33475        -0.001790      0.008161     -0.020231
Ir     13.08393      9.49721     10.40193         0.005856      0.006923     -0.019593
Ir     10.52876     12.34548     12.70694         0.013911     -0.017875      0.041068
Ir      7.16641     10.99133      9.49268         0.051605     -0.018057      0.001876
Ir      8.44042     12.45831      8.16568         0.067960      0.022333      0.011108
Ir      8.06703      9.29636     11.11207        -0.022717      0.027715     -0.023504
