152
# total energy = -1023.29902751 eVH     10.35389      5.87395      7.64558         0.487099      0.082420      0.711091
H     10.62451     15.10445      7.64558        -0.104285     -0.063929      0.790183
H     10.62451      5.87395     13.33282         0.150067      0.131039     -0.633108
H     10.35389     15.10445     13.33282        -0.189072     -0.110025     -0.548267
H      7.64558     10.35389      5.87395         0.312494     -0.019869      0.197310
H      7.64558     10.62451     15.10445         0.674549     -0.229667     -0.126444
H     13.33282     10.62451      5.87395        -0.755968     -0.125428      0.204460
H     13.33282     10.35389     15.10445        -0.456914     -0.112205     -0.051460
H      5.87395      7.64558     10.35389         0.213363      1.087500     -0.254505
H     15.10445      7.64558     10.62451        -0.172497      0.462021     -0.110699
H      5.87395     13.33282     10.62451         0.163021     -0.434292     -0.067008
H     15.10445     13.33282     10.35389        -0.126900     -0.911507      0.017974
H      5.87395     10.35389      7.64558         0.138981      0.096560      0.464938
H     15.10445     10.62451      7.64558         0.098570     -0.005109      1.101956
H      5.87395     10.62451     13.33282         0.190381     -0.035407     -0.393024
H     15.10445     10.35389     13.33282        -0.115737     -0.051393     -0.560224
H     10.35389      7.64558      5.87395         0.115182      0.896400      0.195442
H     10.62451      7.64558     15.10445        -0.002404      0.482691     -0.163980
H     10.62451     13.33282      5.87395        -0.028994     -0.597786      0.233423
H     10.35389     13.33282     15.10445        -0.321148     -0.880449     -0.112699
H      7.64558      5.87395     10.35389         0.440942      0.097458     -0.046831
H      7.64558     15.10445     10.62451         0.871123     -0.273975      0.041455
H     13.33282      5.87395     10.62451        -0.454262      0.184237     -0.063859
H     13.33282     15.10445     10.35389        -0.652475     -0.094074      0.164082
H     12.45634     12.45634     19.01126         0.252669      0.266312     -0.227394
H     19.01126     19.01126     19.01126        -0.250503     -0.232604     -0.258701
H     19.01126     12.45634     12.45634        -0.238532      0.274038      0.238331
H     12.45634     19.01126     12.45634         0.224891     -0.263712      0.251474
C     10.35284      5.61067      6.59456        -0.192235     -0.375072     -0.016105
C     10.62556     15.36773      6.59456         0.061611      0.389186     -1.162948
C     10.62556      5.61067     14.38384        -0.056091     -0.223103      0.797630
C     10.35284     15.36773     14.38384         0.055662      0.888016      0.390957
C      6.59456     10.35284      5.61067        -0.373992     -0.034789     -0.176751
C      6.59456     10.62556     15.36773        -0.864170      0.221021      0.379660
C     14.38384     10.62556      5.61067         0.432638      0.290710     -0.512542
C     14.38384     10.35284     15.36773         0.792447     -0.119508      0.443411
C      5.61067      6.59456     10.35284        -0.311636     -0.645642      0.422535
C     15.36773      6.59456     10.62556         0.175514     -0.523174      0.072805
C      5.61067     14.38384     10.62556        -0.145237      0.403004     -0.020136
C     15.36773     14.38384     10.35284         0.387389     -0.054011     -0.114643
C      5.61067     10.35284      6.59456        -0.254845     -0.014290     -0.776619
C     15.36773     10.62556      6.59456         0.604025     -0.278965     -1.338257
C      5.61067     10.62556     14.38384        -0.355759      0.004094      0.422649
C     15.36773     10.35284     14.38384         0.504256     -0.166988      1.148868
C     10.35284      6.59456      5.61067        -0.167369     -0.503055     -0.446775
C     10.62556      6.59456     15.36773         0.051496     -0.574561      0.257052
C     10.62556     14.38384      5.61067         0.120647      1.025031     -0.477706
C     10.35284     14.38384     15.36773         0.242581      0.573286      0.565019
C      6.59456      5.61067     10.35284        -0.100846     -0.808130      0.074075
C      6.59456     15.36773     10.62556        -1.508077      0.399876      0.102717
C     14.38384      5.61067     10.62556         0.655599     -0.267239     -0.011022
C     14.38384     15.36773     10.35284        -0.436286      0.680373     -0.314302
C     10.40319      3.19606      7.29314         0.008764      0.856605     -0.300936
C     10.35913      4.25547      6.23373        -0.049324     -0.459502      0.527876
C      0.08601      7.29314      7.29314        -0.006892     -0.277118     -0.479082
C      0.13007      6.23373      6.23373         0.026378      0.123972      0.199675
C      0.08601      3.19606      3.19606        -0.012040      0.723111      0.198387
C      0.13007      4.25547      4.25547        -0.089809     -0.185831     -0.205834
C     10.40319      7.29314      3.19606        -0.006074     -0.680970      0.552953
C     10.35913      6.23373      4.25547        -0.036742      0.294690     -0.615320
C      7.29314     10.40319      3.19606        -0.358180      0.029652      0.915716
C      6.23373     10.35913      4.25547         0.183566      0.032284     -0.120355
C      7.29314      0.08601      7.29314        -0.317683     -0.039646     -0.292928
C      6.23373      0.13007      6.23373         0.345194     -0.052871      0.343964
C      3.19606      0.08601      3.19606         0.555404     -0.034622      0.686732
C      4.25547      0.13007      4.25547        -0.090941     -0.036114     -0.382410
C      3.19606     10.40319      7.29314         0.731469      0.001818     -0.410692
C      4.25547     10.35913      6.23373        -0.162391      0.037133      0.095528
C      3.19606      7.29314     10.40319         0.647589     -1.290363     -0.009063
C      4.25547      6.23373     10.35913        -0.633741      0.909234      0.086210
C      7.29314      7.29314      0.08601        -0.638424     -0.186757     -0.018191
C      6.23373      6.23373      0.13007         0.208816      0.205608      0.013293
C      3.19606      3.19606      0.08601         0.265434      0.289060     -0.019639
C      4.25547      4.25547      0.13007        -0.072488     -0.035835      0.001522
C      7.29314      3.19606     10.40319        -0.364196      0.976817      0.017356
C      6.23373      4.25547     10.35913         1.061316     -0.022309      0.017355
O     10.43466      3.58206      8.50569        -0.043189      0.044308      0.387844
O     10.54374     17.39634      8.50569        -0.034347     -0.162717      0.571170
O     10.54374      3.58206     12.47271         0.052440      0.041637     -0.287886
O     10.43466     17.39634     12.47271        -0.012054     -0.131816     -0.619365
O      8.50569     10.43466      3.58206         0.375754     -0.022559     -0.022784
O      8.50569     10.54374     17.39634         0.476942      0.046501     -0.146557
O     12.47271     10.54374      3.58206        -0.503253      0.013149      0.089070
O     12.47271     10.43466     17.39634        -0.813111      0.003025     -0.194558
O      3.58206      8.50569     10.43466         0.118443      1.055333      0.018392
O     17.39634      8.50569     10.54374        -0.039190      0.326178      0.075541
O      3.58206     12.47271     10.54374         0.072906     -0.457213      0.052243
O     17.39634     12.47271     10.43466        -0.175439     -0.879247      0.053082
O      3.58206     10.43466      8.50569        -0.066263     -0.069676      0.324586
O     17.39634     10.54374      8.50569        -0.129388      0.044032      0.459705
O      3.58206     10.54374     12.47271         0.080749     -0.020264     -0.614688
O     17.39634     10.43466     12.47271        -0.179218      0.052147     -0.762970
O     10.43466      8.50569      3.58206         0.031708      0.670244      0.158423
O     10.54374      8.50569     17.39634         0.062780      0.466894     -0.087758
O     10.54374     12.47271      3.58206        -0.020335     -0.785360      0.241182
O     10.43466     12.47271     17.39634         0.035261     -0.865611     -0.241791
O      8.50569      3.58206     10.43466         0.453292      0.028714     -0.035742
O      8.50569     17.39634     10.54374         0.668186     -0.261062     -0.054688
O     12.47271      3.58206     10.54374        -0.461757      0.153913      0.044942
O     12.47271     17.39634     10.43466        -0.529120     -0.013877     -0.008069
O     11.90042     11.90042     19.56718        -0.292369     -0.313563      0.256607
O     19.56718     19.56718     19.56718         0.283906      0.269101      0.312638
O     19.56718     11.90042     11.90042         0.264312     -0.320491     -0.235336
O     11.90042     19.56718     11.90042        -0.270681      0.281641     -0.263004
O      9.45224      1.03696      9.45224        -0.081139      0.043719     -0.066645
O      1.03696      9.45224      9.45224         0.019089     -0.163559     -0.096785
O      1.03696      1.03696      1.03696         0.001537      0.072555      0.186565
O      9.45224      9.45224      1.03696        -0.061865     -0.091882      0.115373
Zr     10.48920      2.52580     10.48920        -0.003069     -0.093676     -0.061984
Zr     10.48920     18.45260     10.48920         0.116188      0.329061     -0.009798
Zr     10.48920     10.48920      2.52580         0.019434     -0.063262     -0.424206
Zr     10.48920     10.48920     18.45260        -0.164587     -0.066445      0.388154
Zr      2.52580     10.48920     10.48920        -0.330451      0.247596     -0.112302
Zr     18.45260     10.48920     10.48920         0.272518     -0.010739     -0.283405
Pd      8.96835     10.12618     13.32445        -0.070835     -0.031828      0.017484
Pd     10.69351      9.69496     10.79960        -0.010608     -0.053510     -0.089863
Pd     13.72790      8.44566     12.57726        -0.033841      0.092183     -0.026842
Pd     11.00054     10.90854     14.98129        -0.038804     -0.031187      0.021470
Pd     12.91433     11.06490     12.99621         0.027634      0.055587      0.099438
Pd     15.08057     11.07988     11.31237        -0.019155     -0.049647      0.002192
Pd      6.61288      7.71299     12.32349         0.008148      0.043163      0.021157
Pd      9.31662      7.30811      9.85479        -0.011298     -0.003407     -0.025958
Pd      9.24327      7.47937     12.61716         0.022349      0.015429     -0.038415
Pd     11.65314      7.18752     11.39979         0.005675      0.034339     -0.033633
Pd     11.69608      7.98963      8.86323         0.024665     -0.050055     -0.072450
Pd      7.35781     11.78295     11.78422        -0.038940     -0.016429     -0.022890
Pd      9.18478     14.70721      9.43672        -0.010619     -0.085682     -0.004618
Pd      8.37888     12.55306     14.26990        -0.043881     -0.017147      0.016183
Pd     14.09531     14.25335      8.31096         0.009521     -0.006912      0.006162
Pd     11.51273     13.63924      8.73817         0.028137     -0.022428      0.043440
Pd     14.15528     11.69408      8.88268        -0.020959     -0.007205      0.001878
Pd      8.71260     14.03568     12.08634        -0.017352     -0.001065      0.027150
Pd     12.26513     13.53834     14.14481        -0.011382      0.058866      0.005090
Pd     11.34383     14.39971     11.44517         0.009180     -0.043626      0.003916
Pd     14.06706     13.59816     12.26021         0.000059     -0.015387     -0.015545
Pd     12.41848     12.12919     10.72970        -0.019636     -0.103064      0.041629
Pd     12.75162     12.54698      6.66789        -0.005227      0.026134     -0.014521
Pd     13.93496      8.99672      7.95469         0.020692     -0.022486     -0.069330
Pd      6.94714      8.50048      8.75936         0.004043     -0.002673     -0.013851
Pd      5.62520     10.09747     10.69953         0.017928     -0.005581     -0.085670
Pd      9.39632      9.47184      8.07087        -0.014958     -0.015054     -0.102731
Pd      8.56602      7.03488      7.22812        -0.027150     -0.043703     -0.028109
Pd      9.75964     12.11544     10.40176        -0.026240     -0.060545      0.095207
Pd     11.63240     10.82145      8.44976        -0.024772     -0.000781     -0.064481
Pd     11.59233      9.08886      6.43274         0.039498     -0.030144     -0.076287
Pd     10.11226     11.32806      6.22354         0.046159     -0.026116     -0.159006
Ir     11.28575      9.04245     13.18400        -0.027834      0.046947     -0.070316
Ir     13.22254      9.59925     10.34496         0.001245     -0.040244     -0.017137
Ir     10.54349     12.23107     12.76798        -0.005080     -0.029329      0.036865
Ir      7.61215     11.01040      9.25352         0.002706     -0.039902      0.035443
Ir      8.96580     12.53514      8.07254         0.054382     -0.010211     -0.037301
Ir      8.20033      9.31721     11.00674        -0.014036      0.012611     -0.016549
