152
# total energy = -1093.15647548 eVH     10.35389      5.87395      7.64558        -0.044989     -0.117215      1.173261
H     10.62451     15.10445      7.64558        -0.167325      0.084066      1.379136
H     10.62451      5.87395     13.33282         0.148393     -0.037285     -1.067575
H     10.35389     15.10445     13.33282         0.019665     -0.053401     -0.880470
H      7.64558     10.35389      5.87395         0.529319      0.023839     -0.100659
H      7.64558     10.62451     15.10445         0.402671     -0.002161      0.006268
H     13.33282     10.62451      5.87395        -0.670023     -0.034798      0.001517
H     13.33282     10.35389     15.10445        -0.428162     -0.013702     -0.018283
H      5.87395      7.64558     10.35389        -0.142665      1.334520      0.051647
H     15.10445      7.64558     10.62451        -0.018747      0.444239      0.030664
H      5.87395     13.33282     10.62451        -0.078021     -0.225326      0.043882
H     15.10445     13.33282     10.35389         0.184906     -1.514911      0.099308
H      5.87395     10.35389      7.64558        -0.084568     -0.774777      0.493930
H     15.10445     10.62451      7.64558         0.450602      0.802726      0.227211
H      5.87395     10.62451     13.33282        -0.002529     -0.175430     -0.267827
H     15.10445     10.35389     13.33282        -0.067105      0.230754     -0.185902
H     10.35389      7.64558      5.87395        -0.114130      0.425693      0.098907
H     10.62451      7.64558     15.10445         0.053632      0.503590      0.279812
H     10.62451     13.33282      5.87395         0.093478     -0.409953     -0.195042
H     10.35389     13.33282     15.10445        -0.137615     -0.566128      0.174043
H      7.64558      5.87395     10.35389         0.491833     -0.037107     -0.049646
H      7.64558     15.10445     10.62451         0.300983      0.029288     -0.028567
H     13.33282      5.87395     10.62451        -0.196123     -0.082196     -0.007389
H     13.33282     15.10445     10.35389        -0.501651      0.089126     -0.018308
H     12.45634     12.45634     19.01126         0.265301      0.247853     -0.245009
H     19.01126     19.01126     19.01126        -0.263096     -0.242621     -0.252167
H     19.01126     12.45634     12.45634        -0.265528      0.261690      0.232933
H     12.45634     19.01126     12.45634         0.275241     -0.255337      0.226252
C     10.35284      5.61067      6.59456        -0.144339     -0.315575     -1.782667
C     10.62556     15.36773      6.59456         0.426010      0.133223     -1.855404
C     10.62556      5.61067     14.38384        -0.345921     -0.126169      1.708017
C     10.35284     15.36773     14.38384         0.226075      0.148222      1.625635
C      6.59456     10.35284      5.61067        -0.937985     -0.120385     -0.323742
C      6.59456     10.62556     15.36773        -0.827800     -0.007313      0.119480
C     14.38384     10.62556      5.61067         1.034029      0.042688     -0.237406
C     14.38384     10.35284     15.36773         0.770861     -0.024203      0.169848
C      5.61067      6.59456     10.35284        -0.100302     -1.664421      0.068433
C     15.36773      6.59456     10.62556         0.319607     -0.908695      0.037119
C      5.61067     14.38384     10.62556        -0.423072      0.802119      0.044277
C     15.36773     14.38384     10.35284         0.060588      1.805286     -0.072524
C      5.61067     10.35284      6.59456        -0.769972      0.294521     -1.844276
C     15.36773     10.62556      6.59456         0.733100     -0.213452     -1.929730
C      5.61067     10.62556     14.38384        -0.672196      0.090262      1.608894
C     15.36773     10.35284     14.38384         0.557194     -0.059427      1.395403
C     10.35284      6.59456      5.61067         0.027989     -1.538491     -0.745539
C     10.62556      6.59456     15.36773        -0.050405     -1.910629      0.696795
C     10.62556     14.38384      5.61067         0.087536      1.829483     -0.852354
C     10.35284     14.38384     15.36773         0.036080      1.850922      0.614232
C      6.59456      5.61067     10.35284        -0.890193     -0.810895     -0.033831
C      6.59456     15.36773     10.62556        -1.026254      0.572954      0.073521
C     14.38384      5.61067     10.62556         0.951082     -0.681007      0.088924
C     14.38384     15.36773     10.35284         0.878092      0.874948     -0.004003
C     10.40319      3.19606      7.29314        -0.004844      0.528653     -0.578364
C     10.35913      4.25547      6.23373        -0.008661     -0.828792      0.537308
C      0.08601      7.29314      7.29314         0.014287     -0.462860     -0.572240
C      0.13007      6.23373      6.23373         0.059581      0.846469      0.448532
C      0.08601      3.19606      3.19606         0.027999      0.690986      0.462082
C      0.13007      4.25547      4.25547        -0.040989     -0.736182     -0.484070
C     10.40319      7.29314      3.19606        -0.017580     -0.819761      0.480688
C     10.35913      6.23373      4.25547         0.009180      0.562846     -0.510249
C      7.29314     10.40319      3.19606        -0.314711     -0.006588      0.499064
C      6.23373     10.35913      4.25547         0.188162     -0.078639     -0.148137
C      7.29314      0.08601      7.29314        -0.254406     -0.031203     -0.379425
C      6.23373      0.13007      6.23373         0.155705     -0.095604      0.371383
C      3.19606      0.08601      3.19606         0.421883      0.013556      0.483642
C      4.25547      0.13007      4.25547        -0.206785      0.069803     -0.196257
C      3.19606     10.40319      7.29314         0.220335      0.034308     -0.507809
C      4.25547     10.35913      6.23373        -0.188851      0.105717      0.341461
C      3.19606      7.29314     10.40319         0.170863     -0.318554      0.009574
C      4.25547      6.23373     10.35913        -0.570568      0.174319      0.053197
C      7.29314      7.29314      0.08601        -0.587256     -0.466322      0.003463
C      6.23373      6.23373      0.13007         0.120040      0.192726     -0.058117
C      3.19606      3.19606      0.08601         0.558339      0.462832      0.005029
C      4.25547      4.25547      0.13007        -0.067727     -0.101229     -0.036243
C      7.29314      3.19606     10.40319        -0.218388      0.335498      0.011092
C      6.23373      4.25547     10.35913         0.592247     -0.247671      0.017927
O     10.43466      3.58206      8.50569         0.016578      0.238105      0.499426
O     10.54374     17.39634      8.50569        -0.028669     -0.239015      0.516036
O     10.54374      3.58206     12.47271         0.081111      0.159747     -0.396406
O     10.43466     17.39634     12.47271        -0.100982     -0.117145     -0.354074
O      8.50569     10.43466      3.58206         0.413366     -0.021752      0.075317
O      8.50569     10.54374     17.39634         0.470671      0.059431     -0.124733
O     12.47271     10.54374      3.58206        -0.501727     -0.009902      0.093507
O     12.47271     10.43466     17.39634        -0.416099     -0.054193     -0.103106
O      3.58206      8.50569     10.43466         0.165047      0.424216     -0.056012
O     17.39634      8.50569     10.54374        -0.089193      0.563914      0.048531
O      3.58206     12.47271     10.54374         0.048237     -0.533725      0.038943
O     17.39634     12.47271     10.43466        -0.173835     -0.453593     -0.025165
O      3.58206     10.43466      8.50569         0.188294     -0.014486      0.493495
O     17.39634     10.54374      8.50569        -0.124063     -0.009405      0.458886
O      3.58206     10.54374     12.47271         0.178750      0.088881     -0.484762
O     17.39634     10.43466     12.47271        -0.191251     -0.081539     -0.526841
O     10.43466      8.50569      3.58206         0.047371      0.663779      0.270600
O     10.54374      8.50569     17.39634         0.057220      0.489774     -0.210546
O     10.54374     12.47271      3.58206        -0.019520     -0.633237      0.267718
O     10.43466     12.47271     17.39634        -0.033419     -0.526187     -0.219025
O      8.50569      3.58206     10.43466         0.517157      0.151663     -0.030860
O      8.50569     17.39634     10.54374         0.621963     -0.095401      0.045543
O     12.47271      3.58206     10.54374        -0.625943      0.102416      0.035470
O     12.47271     17.39634     10.43466        -0.484138     -0.138266     -0.017126
O     11.90042     11.90042     19.56718        -0.307127     -0.283745      0.271046
O     19.56718     19.56718     19.56718         0.315670      0.270405      0.290306
O     19.56718     11.90042     11.90042         0.324354     -0.307371     -0.235684
O     11.90042     19.56718     11.90042        -0.328598      0.281020     -0.223619
O      9.45224      1.03696      9.45224        -0.030633      0.060818     -0.065628
O      1.03696      9.45224      9.45224         0.037102     -0.079762     -0.058714
O      1.03696      1.03696      1.03696         0.034342      0.051518      0.131232
O      9.45224      9.45224      1.03696        -0.024132     -0.089260      0.134610
Zr     10.48920      2.52580     10.48920        -0.107204     -0.130634     -0.011595
Zr     10.48920     18.45260     10.48920         0.109923      0.188616     -0.102086
Zr     10.48920     10.48920      2.52580        -0.009273      0.111212     -0.320457
Zr     10.48920     10.48920     18.45260        -0.034538     -0.014956      0.145484
Zr      2.52580     10.48920     10.48920        -0.049061     -0.029550     -0.049658
Zr     18.45260     10.48920     10.48920         0.089596      0.110204     -0.143618
Pd     12.91117      8.09429      7.61109        -0.006947     -0.011689     -0.009804
Pd      9.57392     14.56837     11.75270         0.004877     -0.001870      0.009457
Pd     12.30335     10.86454     10.41741        -0.010965      0.021155      0.001430
Pd     14.63406      9.94749     11.58480        -0.012296      0.005849     -0.004627
Pd     10.91885      9.33400      6.10666        -0.018510     -0.007765     -0.001977
Pd      6.88781      8.54876      8.97303        -0.019778     -0.009245      0.005065
Ir     10.24178     11.84040     11.75286         0.026411     -0.005057     -0.024021
Ir     12.87558      8.26095     10.28990        -0.005363     -0.015032      0.005036
Ir     12.28171     10.96916      7.71592        -0.014586      0.016599     -0.004898
Ir      9.68062     14.38608      9.16029         0.011277      0.000606      0.009137
Ir     10.76374      9.16663     11.69936        -0.003851      0.032981     -0.048094
Ir      8.66399     10.08380      7.74947         0.010840      0.019138      0.005947
Ir     13.85308     12.48810      9.04678        -0.007531      0.001814     -0.023200
Ir     11.96410     13.55306      7.82306         0.003132     -0.011457      0.004396
Ir     14.27389      9.87814      9.00660         0.010588     -0.003829     -0.012889
Ir      9.16554      7.44095     10.35751         0.001591     -0.006125     -0.002773
Ir      8.15046     12.76976      7.83016         0.009311     -0.006632      0.015871
Ir      9.10936      7.60924      7.79348        -0.002278     -0.010830      0.012802
Ir     11.85947     13.48451     13.02605         0.011140     -0.006269     -0.014620
Ir     11.34207      6.66840     11.68010         0.009054     -0.009317      0.001287
Ir     10.22919     11.81447      9.07490        -0.004369     -0.007009     -0.018882
Ir     12.85720      8.29662     12.94841         0.017898      0.001176      0.002236
Ir     10.78384      9.15235      8.96161        -0.013993      0.002132     -0.005209
Ir     11.78736     13.56874     10.41868         0.013378     -0.016840     -0.003076
Ir     13.82764     12.56749     11.77679        -0.014359      0.008626      0.004080
Ir     12.35453     10.95761     13.08020         0.012770      0.016998     -0.022865
Ir     10.10216     11.72329      6.48740        -0.011536     -0.002536      0.015978
Ir     11.27882      6.57091      9.18090        -0.003673      0.001531      0.009694
Ir      7.16357      8.36747     11.78819        -0.029752     -0.001899     -0.015518
Ir      8.16533     12.71080     10.43117         0.002892      0.003023     -0.022749
Ir     10.85141      9.25203     14.25621        -0.008074     -0.001480      0.021068
Ir      8.07090     12.53464     12.98362        -0.003603      0.007504      0.016097
Ir      6.54136     11.28404      9.05839         0.006751      0.020688     -0.011162
Ir      8.62819     10.04398     13.04034        -0.013183      0.002977      0.011311
Ir      6.55030     10.91621     11.51979        -0.021756      0.010233      0.013926
Ir      9.10018      7.46334     13.02258        -0.004712     -0.014673      0.018613
Ir     10.17754     11.64796     14.35590         0.002187      0.003712      0.003290
Ir      8.68748     10.06508     10.38934         0.028262     -0.003097     -0.021349
