152
# total energy = -1005.96276419 eVH     10.35389      5.87395      7.64558         0.229539      0.043180      0.626064
H     10.62451     15.10445      7.64558        -0.107290     -0.147514      0.533399
H     10.62451      5.87395     13.33282         0.492650      0.122084     -0.595429
H     10.35389     15.10445     13.33282         0.065543     -0.185130     -0.536324
H      7.64558     10.35389      5.87395         0.366672      0.032141      0.173255
H      7.64558     10.62451     15.10445         0.685260      0.466819     -0.044080
H     13.33282     10.62451      5.87395        -0.523027      0.407343      0.074951
H     13.33282     10.35389     15.10445        -0.791591     -0.086558     -0.006447
H      5.87395      7.64558     10.35389         0.266875      0.923640     -0.157467
H     15.10445      7.64558     10.62451        -0.098317      0.484270      0.280689
H      5.87395     13.33282     10.62451         0.154038     -0.696311     -0.166760
H     15.10445     13.33282     10.35389        -0.004041     -1.049778     -0.324695
H      5.87395     10.35389      7.64558         0.240743      0.071192      0.532747
H     15.10445     10.62451      7.64558        -0.116117      0.414160      0.781254
H      5.87395     10.62451     13.33282         0.145283      0.345482     -0.688355
H     15.10445     10.35389     13.33282        -0.039696     -0.067175     -0.702658
H     10.35389      7.64558      5.87395         0.338853      1.073633      0.001590
H     10.62451      7.64558     15.10445         0.530643      0.532768     -0.117447
H     10.62451     13.33282      5.87395        -0.402836     -0.831834      0.197762
H     10.35389     13.33282     15.10445        -0.040692     -0.432023     -0.218926
H      7.64558      5.87395     10.35389         0.852507      0.078147     -0.273530
H      7.64558     15.10445     10.62451         0.824164     -0.203797     -0.008392
H     13.33282      5.87395     10.62451        -0.784058      0.186590      0.593699
H     13.33282     15.10445     10.35389        -0.437275     -0.104844     -0.134089
H     12.45634     12.45634     19.01126         0.236181      0.270213     -0.239887
H     19.01126     19.01126     19.01126        -0.261382     -0.240968     -0.262160
H     19.01126     12.45634     12.45634        -0.267543      0.267572      0.220225
H     12.45634     19.01126     12.45634         0.233079     -0.258378      0.274380
C     10.35284      5.61067      6.59456        -0.418295     -0.675376      0.091149
C     10.62556     15.36773      6.59456         0.067730      0.363166     -0.311506
C     10.62556      5.61067     14.38384        -0.329114     -0.385248     -0.279620
C     10.35284     15.36773     14.38384        -0.005034      0.325810      0.529624
C      6.59456     10.35284      5.61067        -0.326943     -0.004796     -0.282922
C      6.59456     10.62556     15.36773        -0.238080     -0.216963      0.782079
C     14.38384     10.62556      5.61067        -0.218258     -0.396306     -0.529987
C     14.38384     10.35284     15.36773         0.962995     -0.069086      0.248976
C      5.61067      6.59456     10.35284        -0.540189     -0.034426     -0.107046
C     15.36773      6.59456     10.62556         0.546599      0.005825     -0.249112
C      5.61067     14.38384     10.62556        -0.309850      0.981127      0.079380
C     15.36773     14.38384     10.35284         0.283187      1.048800      0.051386
C      5.61067     10.35284      6.59456        -0.205491     -0.116949     -0.612157
C     15.36773     10.62556      6.59456         0.439689     -0.261441      0.114633
C      5.61067     10.62556     14.38384        -0.678688     -0.346709     -0.110954
C     15.36773     10.35284     14.38384         0.383867     -0.063290      1.024088
C     10.35284      6.59456      5.61067        -0.218358     -0.368506     -0.640939
C     10.62556      6.59456     15.36773        -0.267647      0.135098      0.455526
C     10.62556     14.38384      5.61067         0.202201      1.057224     -0.338553
C     10.35284     14.38384     15.36773         0.009974      0.550931      0.421385
C      6.59456      5.61067     10.35284        -0.087458     -0.844858      0.273028
C      6.59456     15.36773     10.62556        -0.997477      0.272651      0.081167
C     14.38384      5.61067     10.62556         0.479790     -0.548732     -0.374230
C     14.38384     15.36773     10.35284         0.217137      0.456412     -0.094250
C     10.40319      3.19606      7.29314         0.016045      0.667136     -0.483311
C     10.35913      4.25547      6.23373         0.089364     -0.686801     -0.001304
C      0.08601      7.29314      7.29314        -0.043634     -0.408401     -0.322108
C      0.13007      6.23373      6.23373        -0.024120      0.096196      0.571425
C      0.08601      3.19606      3.19606        -0.007195      1.299609      0.285799
C      0.13007      4.25547      4.25547         0.051736     -0.780733     -0.165948
C     10.40319      7.29314      3.19606         0.011624     -0.314139      0.311444
C     10.35913      6.23373      4.25547         0.023445      0.013108     -0.803970
C      7.29314     10.40319      3.19606        -0.295756      0.021990      0.559973
C      6.23373     10.35913      4.25547         0.182882      0.061214     -0.077612
C      7.29314      0.08601      7.29314        -0.505922     -0.066124     -0.378219
C      6.23373      0.13007      6.23373         0.678105     -0.061728      0.473803
C      3.19606      0.08601      3.19606         0.780367     -0.031002      0.577646
C      4.25547      0.13007      4.25547        -0.588132     -0.088508     -0.540328
C      3.19606     10.40319      7.29314         0.474585     -0.010302     -0.746244
C      4.25547     10.35913      6.23373        -0.329278      0.068511      0.192754
C      3.19606      7.29314     10.40319         0.298623     -1.290836      0.047563
C      4.25547      6.23373     10.35913        -0.865754      0.108813      0.139629
C      7.29314      7.29314      0.08601        -0.408843     -0.379049     -0.025733
C      6.23373      6.23373      0.13007         0.457036      0.219513     -0.012277
C      3.19606      3.19606      0.08601         0.482424      0.373883     -0.042293
C      4.25547      4.25547      0.13007        -0.156056     -0.647110     -0.036679
C      7.29314      3.19606     10.40319        -0.331820      0.447556      0.074278
C      6.23373      4.25547     10.35913         0.305605     -0.677926      0.148982
O     10.43466      3.58206      8.50569        -0.016860      0.109643      0.506344
O     10.54374     17.39634      8.50569         0.034922     -0.175718      0.492952
O     10.54374      3.58206     12.47271         0.050836     -0.096331     -0.179816
O     10.43466     17.39634     12.47271        -0.039183     -0.184178     -0.530830
O      8.50569     10.43466      3.58206         0.288627     -0.009381      0.020585
O      8.50569     10.54374     17.39634         0.621598      0.036605     -0.143675
O     12.47271     10.54374      3.58206        -0.738180      0.087379      0.095156
O     12.47271     10.43466     17.39634        -0.439593      0.022644     -0.109758
O      3.58206      8.50569     10.43466         0.166283      1.046173     -0.035656
O     17.39634      8.50569     10.54374        -0.160860      0.543485      0.076114
O      3.58206     12.47271     10.54374         0.087649     -0.373615      0.050132
O     17.39634     12.47271     10.43466        -0.156333     -0.545688     -0.023194
O      3.58206     10.43466      8.50569         0.081440     -0.070289      0.585429
O     17.39634     10.54374      8.50569        -0.112091      0.066741      0.528542
O      3.58206     10.54374     12.47271         0.028600      0.043163     -0.514200
O     17.39634     10.43466     12.47271        -0.226279     -0.039019     -0.615915
O     10.43466      8.50569      3.58206        -0.039298      0.444822      0.138290
O     10.54374      8.50569     17.39634         0.051436      0.534111     -0.158377
O     10.54374     12.47271      3.58206         0.011350     -1.032997      0.193129
O     10.43466     12.47271     17.39634         0.038997     -0.713133     -0.173355
O      8.50569      3.58206     10.43466         0.516295      0.147288     -0.056003
O      8.50569     17.39634     10.54374         0.486147     -0.194838      0.014572
O     12.47271      3.58206     10.54374        -0.625845      0.224873      0.009687
O     12.47271     17.39634     10.43466        -0.230012      0.064348     -0.051616
O     11.90042     11.90042     19.56718        -0.240272     -0.289677      0.248420
O     19.56718     19.56718     19.56718         0.310449      0.295319      0.302441
O     19.56718     11.90042     11.90042         0.294462     -0.263972     -0.233306
O     11.90042     19.56718     11.90042        -0.240824      0.292188     -0.324812
O      9.45224      1.03696      9.45224        -0.018020      0.089312     -0.072671
O      1.03696      9.45224      9.45224         0.092837     -0.091216     -0.133019
O      1.03696      1.03696      1.03696         0.093925      0.188033      0.051409
O      9.45224      9.45224      1.03696        -0.107150     -0.106486      0.035665
Zr     10.48920      2.52580     10.48920        -0.128040     -0.285398     -0.037299
Zr     10.48920     18.45260     10.48920        -0.072294      0.214625      0.070500
Zr     10.48920     10.48920      2.52580        -0.004113     -0.402490     -0.264588
Zr     10.48920     10.48920     18.45260        -0.277872     -0.094657      0.318412
Zr      2.52580     10.48920     10.48920        -0.384386      0.237157      0.269029
Zr     18.45260     10.48920     10.48920         0.235119     -0.001117     -0.220492
Pd     13.58457      8.93617      9.25479         0.009755      0.012760     -0.009794
Pd      5.63748      9.87404     10.16165        -0.004687      0.004869     -0.007646
Pd      6.79034     11.85675     11.68720        -0.005691      0.001577      0.008324
Pd     12.08934     13.02205      7.35474        -0.006459     -0.002402      0.005199
Pd     11.89705      7.74212      7.44268        -0.003203      0.002352      0.006720
Pd      8.30774      6.90169      6.59627         0.001129     -0.012920     -0.005905
Pd     10.69564     11.18145      5.63109        -0.011169     -0.001142      0.003733
Pd     14.41397      8.55277      6.76845        -0.001700     -0.001506     -0.007072
Pd      9.69133     11.74234      8.09208        -0.005922     -0.004148      0.008822
Pd      6.77072      6.80661     12.31234         0.000820     -0.004526      0.002070
Pd      6.49066      7.91826      8.17159         0.010001      0.040445     -0.036119
Pd      6.53616      8.50228     14.34615        -0.000321      0.000059     -0.000351
Pd     11.50425      6.52108      9.89477        -0.003552     -0.002036      0.010445
Pd      9.55347      9.22166      7.12723        -0.012949     -0.004806      0.003776
Pd      8.99130     13.99442      9.30135        -0.003564     -0.004570      0.010128
Pd      9.50444      7.36750     11.73226        -0.011090      0.000207     -0.003703
Pd     10.59918      8.99158      9.67931         0.004386     -0.005234      0.001203
Pd      9.33444     11.52827     10.67236         0.000507     -0.000318      0.011330
Pd      8.91445      7.04166      9.15922        -0.006045      0.000745     -0.004882
Pd      8.55212      6.56928     14.24206         0.002618      0.009735      0.003332
Pd      7.67358      9.33283     11.95795        -0.006703      0.000994      0.007276
Pd     11.99430     10.38914      7.74121        -0.008508     -0.000647     -0.000916
Pd      7.14053     12.02143      9.03667        -0.003104     -0.004466      0.009341
Pd      8.10453      9.59658      9.32414         0.006671      0.000760      0.019559
Pd     14.02781      6.47259      8.50604        -0.002132      0.006282      0.004209
Pd     12.56177      8.35445     11.60165         0.014674      0.009407     -0.009015
Pd      8.76964     11.58115     13.39517        -0.000628      0.000113      0.001922
Pd     13.90430     11.95157      8.96089        -0.004604     -0.004268      0.003994
Pd     12.95580     10.67510     13.04943        -0.002327      0.005915      0.004756
Pd     14.79644     10.44157     11.08787        -0.001270      0.001166      0.006461
Pd     12.09056     10.88621     10.51778        -0.005879      0.002161      0.004652
Pd     11.44521     13.33551      9.91700        -0.001168      0.001830      0.004943
Pd     13.60404     12.91576     11.62590        -0.000588      0.000926      0.002315
Pd     11.12589     12.59655     12.52209        -0.002689      0.005652      0.002090
Pd     10.95761     11.04898     14.80523        -0.000619      0.012840      0.002360
Pd     10.50294      9.76500     12.36806         0.003893     -0.010620      0.006234
Pd      9.08461      9.13514     14.40037         0.001340      0.009027      0.010669
Pd      8.84025     13.84407     11.99131        -0.008475      0.001930      0.009530
