9
# total energy = -63.85385234 eVH      2.49509      2.86324     -0.00000         0.198544     -0.107385      0.000000
H      0.07541      6.59165     -0.00000        -0.198544      0.107385      0.000000
C      1.25440      8.07401     -0.00000         0.095868      0.014015      0.000000
C      1.31610      1.38088      0.00000        -0.095868     -0.014015     -0.000000
C      0.00144      8.82734      0.00000        -0.289590      0.153472      0.000000
C     -0.00144      0.69774     -0.00000         0.289590     -0.153472     -0.000000
N      1.51532      2.69744     -0.00000         0.194096      0.287334     -0.000000
N      1.05518      6.75745      0.00000        -0.194096     -0.287334     -0.000000
Ir      1.28525      4.72744     -0.00000        -0.000000      0.000000      0.000000
