152
# total energy = -1003.42412305 eVH     10.35389      5.87395      7.64558        -0.130184      0.198073      0.780349
H     10.62451     15.10445      7.64558        -0.475755     -0.070821      1.076978
H     10.62451      5.87395     13.33282         0.219974     -0.035997     -0.771718
H     10.35389     15.10445     13.33282         0.010919     -0.171060     -0.601356
H      7.64558     10.35389      5.87395         0.564244      0.115298     -0.056477
H      7.64558     10.62451     15.10445         0.741130      0.541314     -0.052016
H     13.33282     10.62451      5.87395        -0.645016      0.022215      0.243695
H     13.33282     10.35389     15.10445        -0.601691     -0.161174     -0.050516
H      5.87395      7.64558     10.35389        -0.005506      1.775610      0.335306
H     15.10445      7.64558     10.62451        -0.027379      0.846518      0.097058
H      5.87395     13.33282     10.62451         0.206897     -0.800543      0.161127
H     15.10445     13.33282     10.35389         0.000053     -1.111767     -0.093514
H      5.87395     10.35389      7.64558        -0.144373      0.135951      0.893317
H     15.10445     10.62451      7.64558        -0.017971      0.781672      1.403250
H      5.87395     10.62451     13.33282        -0.018012      0.388867     -1.426207
H     15.10445     10.35389     13.33282         0.574709      0.074725     -1.020135
H     10.35389      7.64558      5.87395         0.358727      1.405939     -0.049918
H     10.62451      7.64558     15.10445         0.560974      1.099812     -0.040425
H     10.62451     13.33282      5.87395        -0.678213     -0.745869      0.174063
H     10.35389     13.33282     15.10445        -0.070854     -0.417502     -0.175386
H      7.64558      5.87395     10.35389         1.110904     -0.236220     -0.177593
H      7.64558     15.10445     10.62451         0.729983     -0.207020      0.124373
H     13.33282      5.87395     10.62451        -0.976129      0.033250      0.510931
H     13.33282     15.10445     10.35389        -0.322917     -0.086773     -0.032644
H     12.45634     12.45634     19.01126         0.269560      0.232205     -0.248688
H     19.01126     19.01126     19.01126        -0.267980     -0.258826     -0.226926
H     19.01126     12.45634     12.45634        -0.273727      0.254176      0.233846
H     12.45634     19.01126     12.45634         0.257521     -0.272123      0.231051
C     10.35284      5.61067      6.59456        -0.096967     -0.899152     -0.891402
C     10.62556     15.36773      6.59456         0.212151      0.371377     -0.657298
C     10.62556      5.61067     14.38384        -0.281089     -0.771505      0.794608
C     10.35284     15.36773     14.38384         0.012251      0.233237      0.688678
C      6.59456     10.35284      5.61067        -0.831662      0.097207     -0.565025
C      6.59456     10.62556     15.36773        -0.675242      0.181668      0.792773
C     14.38384     10.62556      5.61067         0.728423      0.053919     -0.785320
C     14.38384     10.35284     15.36773         1.233591      0.035615      0.722198
C      5.61067      6.59456     10.35284        -0.837858     -0.868770     -0.086177
C     15.36773      6.59456     10.62556         0.637387      0.166489     -0.091433
C      5.61067     14.38384     10.62556        -0.424038      0.849277     -0.056580
C     15.36773     14.38384     10.35284         0.411597      1.226821     -0.164250
C      5.61067     10.35284      6.59456        -0.284479     -0.001858     -1.087607
C     15.36773     10.62556      6.59456         0.349189     -0.164431     -0.996788
C      5.61067     10.62556     14.38384        -0.457339     -0.054210      1.125107
C     15.36773     10.35284     14.38384         0.069180     -0.029904      1.396458
C     10.35284      6.59456      5.61067        -0.133823     -1.177217     -0.497383
C     10.62556      6.59456     15.36773        -0.068059     -0.937165      0.733659
C     10.62556     14.38384      5.61067        -0.019423      1.125137     -0.762462
C     10.35284     14.38384     15.36773        -0.032707      0.434054      0.263358
C      6.59456      5.61067     10.35284        -0.811015     -1.312913      0.138372
C      6.59456     15.36773     10.62556        -0.840898      0.450806     -0.003289
C     14.38384      5.61067     10.62556         0.242920     -0.736172     -0.016148
C     14.38384     15.36773     10.35284         0.112306      0.510438     -0.025282
C     10.40319      3.19606      7.29314        -0.013072      0.301487     -1.104161
C     10.35913      4.25547      6.23373        -0.021242     -0.438109      0.145785
C      0.08601      7.29314      7.29314        -0.049892     -0.913019     -0.294658
C      0.13007      6.23373      6.23373         0.038991      0.426927      0.613425
C      0.08601      3.19606      3.19606         0.010629      0.991971      0.358183
C      0.13007      4.25547      4.25547         0.039929     -0.535443     -0.410755
C     10.40319      7.29314      3.19606        -0.019954     -0.453107      0.213220
C     10.35913      6.23373      4.25547         0.002255      0.232381     -0.566273
C      7.29314     10.40319      3.19606        -0.293597      0.008986      0.175204
C      6.23373     10.35913      4.25547         0.186459     -0.033244     -0.280480
C      7.29314      0.08601      7.29314        -0.941450     -0.090066     -0.343011
C      6.23373      0.13007      6.23373         0.619322     -0.204479      0.369625
C      3.19606      0.08601      3.19606         0.972265     -0.050989      0.310295
C      4.25547      0.13007      4.25547        -0.552571     -0.179995     -0.437786
C      3.19606     10.40319      7.29314         0.419001      0.008938     -0.190321
C      4.25547     10.35913      6.23373        -0.240902     -0.016038      0.207472
C      3.19606      7.29314     10.40319         0.310963     -0.468098      0.018610
C      4.25547      6.23373     10.35913        -0.975122      0.003901      0.088400
C      7.29314      7.29314      0.08601        -0.454762     -0.349304     -0.035254
C      6.23373      6.23373      0.13007         0.736236      0.126483     -0.001857
C      3.19606      3.19606      0.08601         0.842119      0.388780     -0.024003
C      4.25547      4.25547      0.13007        -0.076314     -0.887292     -0.050134
C      7.29314      3.19606     10.40319        -0.473361      0.420178      0.006045
C      6.23373      4.25547     10.35913         0.374652     -0.799681      0.084608
O     10.43466      3.58206      8.50569         0.102099      0.227838      0.864719
O     10.54374     17.39634      8.50569         0.047458     -0.066931      0.321495
O     10.54374      3.58206     12.47271         0.021194      0.012696     -0.347517
O     10.43466     17.39634     12.47271        -0.039572     -0.137557     -0.399085
O      8.50569     10.43466      3.58206         0.501320     -0.031505      0.176681
O      8.50569     10.54374     17.39634         0.831120     -0.057641     -0.215627
O     12.47271     10.54374      3.58206        -0.830306      0.141017      0.198975
O     12.47271     10.43466     17.39634        -0.514414      0.013946     -0.193316
O      3.58206      8.50569     10.43466         0.186128      0.616700     -0.034651
O     17.39634      8.50569     10.54374        -0.149974      0.531298      0.039772
O      3.58206     12.47271     10.54374         0.080932     -0.457428      0.040653
O     17.39634     12.47271     10.43466        -0.158234     -0.533451     -0.035560
O      3.58206     10.43466      8.50569         0.137327     -0.016275      0.339621
O     17.39634     10.54374      8.50569        -0.012317      0.094551      0.341380
O      3.58206     10.54374     12.47271         0.044640      0.057565     -0.341623
O     17.39634     10.43466     12.47271        -0.149613     -0.031796     -0.360124
O     10.43466      8.50569      3.58206        -0.034119      0.583498      0.196235
O     10.54374      8.50569     17.39634        -0.079904      0.791368     -0.189082
O     10.54374     12.47271      3.58206         0.166710     -0.821296      0.201760
O     10.43466     12.47271     17.39634        -0.036716     -0.265235      0.034728
O      8.50569      3.58206     10.43466         0.639964      0.158862     -0.056104
O      8.50569     17.39634     10.54374         0.588606     -0.201168      0.004543
O     12.47271      3.58206     10.54374        -0.748088      0.088395      0.010073
O     12.47271     17.39634     10.43466        -0.547151     -0.137781     -0.036167
O     11.90042     11.90042     19.56718        -0.307592     -0.234190      0.256726
O     19.56718     19.56718     19.56718         0.308349      0.314474      0.229782
O     19.56718     11.90042     11.90042         0.352542     -0.264102     -0.252579
O     11.90042     19.56718     11.90042        -0.298476      0.358348     -0.245038
O      9.45224      1.03696      9.45224        -0.009070      0.126908     -0.108379
O      1.03696      9.45224      9.45224         0.061774     -0.005680     -0.116165
O      1.03696      1.03696      1.03696         0.046907      0.123015      0.088310
O      9.45224      9.45224      1.03696        -0.031192     -0.012618      0.096319
Zr     10.48920      2.52580     10.48920        -0.206434     -0.372085      0.206685
Zr     10.48920     18.45260     10.48920         0.067908      0.058726      0.097476
Zr     10.48920     10.48920      2.52580        -0.207572     -0.266819     -0.346107
Zr     10.48920     10.48920     18.45260         0.069673      0.008051      0.302822
Zr      2.52580     10.48920     10.48920        -0.117367     -0.176046      0.000274
Zr     18.45260     10.48920     10.48920         0.061585     -0.044533      0.071239
Pd     12.21661      8.35083     10.13514         0.170022     -0.031760     -0.056098
Pd      7.18594      9.47118     10.61867         0.067841      0.017221     -0.041648
Pd      6.95177     11.71701     12.03303         0.002825      0.064876     -0.069406
Pd     12.10266     13.71510      7.56767        -0.057149     -0.074671     -0.052113
Pd     11.69013      7.95013      7.55729        -0.015329     -0.000929     -0.189690
Pd      8.77497      7.53808      7.10347        -0.022277     -0.027375      0.045513
Pd     11.66311     11.70552      5.83111         0.055697     -0.108884      0.066516
Pd     14.09135      9.03487      7.65790         0.024504     -0.032680     -0.019942
Pd      9.65383     12.01207      7.88234         0.067511     -0.095843     -0.106738
Pd      7.12533      7.03369     12.05769        -0.010384     -0.019852     -0.035097
Pd      6.76151      7.54012      8.67885         0.068237      0.171232     -0.141737
Pd      7.24158      9.15158     13.53405         0.076692      0.206600     -0.041992
Pd     11.42366      5.79449      9.25712        -0.065518      0.042885      0.036308
Pd     10.05177      9.81136      6.47649        -0.029392     -0.098719     -0.088570
Pd      8.97702     14.12339      9.24483         0.018499     -0.041919      0.046140
Pd     11.12126      6.62787     11.71906        -0.040765      0.049669      0.089449
Pd      9.95398      9.27285      9.21616         0.019669      0.185438     -0.073665
Pd      9.09184     11.45198     10.42341         0.221673     -0.096050     -0.019488
Pd      9.13297      6.95738      9.96170        -0.026417      0.112793     -0.131504
Pd      8.85516      7.11713     14.02857         0.001276     -0.099390     -0.005504
Pd      9.39325      8.81327     11.87577         0.030521      0.039945      0.034587
Pd     12.04112     10.69370      8.28314         0.031758      0.053781      0.093615
Pd      6.94733     12.18322      9.22776        -0.081425      0.022342     -0.057934
Pd      7.79465      9.93652      8.03744         0.131320     -0.001974      0.070341
Pd     13.88447      6.72706      8.74542         0.042233     -0.124424     -0.214580
Pd     13.62228      7.61540     12.25294        -0.000798     -0.008362      0.029156
Pd      9.33866     11.23075     13.11516        -0.128098     -0.055322     -0.020083
Pd     13.96044     12.43290      8.76192         0.182721      0.018813     -0.043889
Pd     13.41718     10.26654     12.68089         0.107131     -0.020521      0.073021
Pd     14.08754     10.13632     10.12583         0.089215     -0.030320      0.035461
Pd     11.40803     10.63095     11.25661        -0.167566      0.027935     -0.158217
Pd     11.29428     13.02003      9.96474         0.141755      0.089056      0.065321
Pd     13.62230     12.51718     11.39106        -0.001376      0.010668     -0.013857
Pd     11.42937     12.97601     12.64730        -0.061734     -0.037425     -0.113863
Pd     11.60115     11.16560     14.51999        -0.013966      0.053532      0.038622
Pd     11.46506      8.67740     13.43182        -0.117041      0.112324      0.019707
Pd      9.56763      9.56611     15.14414        -0.086845     -0.082075     -0.013584
Pd      8.99262     13.63329     11.87726        -0.068017      0.032424      0.059526
