20
# total energy = -167.56937241 eVC      8.01934      1.36190      7.50000        -0.020385     -0.028626      0.000000
C      1.41070     -0.16923      7.50000         0.015854     -0.020927      0.000000
C      8.34935     -5.42731      7.50000        -0.030260      0.008531      0.000000
C      0.87108      1.14651      7.50000         0.020385      0.028626      0.000000
C      7.47973      2.67764      7.50000        -0.015854      0.020927     -0.000000
C      0.54107      7.93572      7.50000         0.030260     -0.008531     -0.000000
C      7.70486     -4.17960      7.50000        -0.008263      0.032705      0.000000
C      7.17330      0.24678      7.50000         0.066591      0.075639      0.000000
C      2.78522     -0.45470      7.50000         0.015276      0.023853     -0.000000
C      1.18556      6.68801      7.50000         0.008263     -0.032705      0.000000
C      1.71712      2.26163      7.50000        -0.066591     -0.075639      0.000000
C      6.10520      2.96311      7.50000        -0.015276     -0.023853     -0.000000
N      6.76898     -3.45897      7.50000         0.032490     -0.032272     -0.000000
N      6.46774     -0.69500      7.50000        -0.041408     -0.054573      0.000000
N      3.73167     -1.16059      7.50000        -0.021255      0.008710     -0.000000
N      2.12145      5.96738      7.50000        -0.032490      0.032272     -0.000000
N      2.42268      3.20341      7.50000         0.041408      0.054573      0.000000
N      5.15875      3.66900      7.50000         0.021255     -0.008710      0.000000
Ir      5.25787     -2.29870      7.50000        -0.002178     -0.013161      0.000000
Ir      3.63255      4.80711      7.50000         0.002178      0.013161      0.000000
