35
# total energy = -301.58135987 eVC      6.68657     10.29478      7.65224        -0.008964      0.013242      0.001382
C      8.07342      9.94276      7.58020        -0.009506      0.000664     -0.000567
C      9.41842      5.70890      7.65026        -0.013583      0.018335      0.000321
C      1.46271      5.34834      7.66873         0.020960     -0.012317      0.007252
C      4.19571      0.76280      7.63515         0.006879     -0.012811      0.000945
C      2.80871      1.11481      7.56570         0.016240     -0.014135      0.001230
C      0.70564      4.16530      7.64552        -0.016941      0.014842      0.000380
C      1.09239      2.78808      7.57213        -0.013510      0.014384      0.001485
C      5.35954      1.54939      7.64645        -0.005931      0.009962      0.000036
C      5.52249      9.50861      7.67165         0.002429     -0.012653      0.010775
C     10.17607      6.89177      7.64314         0.017165     -0.009772      0.001669
C      9.78978      8.26956      7.57524         0.028667     -0.023900     -0.000517
C      0.77638      6.57755      7.64835        -0.019516      0.010694     -0.000334
C      1.26014      7.92551      7.57974         0.006741     -0.021374      0.000033
C     10.10523      4.47982      7.64262         0.013275     -0.014186      0.000592
C      9.62199      3.13211      7.56835        -0.002562      0.021554     -0.003287
C      4.27639     10.16469      7.65193         0.006239      0.012236      0.000301
C      2.94103      9.64777      7.58097         0.015911     -0.002730     -0.001300
C      6.60550      0.89292      7.63809         0.011591     -0.006403     -0.001562
C      7.94117      1.40942      7.56612        -0.025599      0.006519     -0.005994
N      8.81019      0.31841      7.47735        -0.000980      0.020952      0.001350
N      0.14842      8.76714      7.48670         0.023461      0.007890     -0.000411
N      8.53981      8.70363      7.60093        -0.047045     -0.005020      0.000269
N      2.34276      2.35362      7.59386         0.025796      0.021100     -0.000551
N      2.07226     10.73859      7.48809        -0.007832     -0.025022      0.002926
N     10.73470      2.29069      7.48161        -0.023673     -0.007981     -0.000573
N      2.57313      8.32541      7.60033        -0.009035      0.012123     -0.004323
N      8.30893      2.73197      7.58296         0.012768     -0.016093     -0.009603
O      5.32864      2.87884      7.62248         0.006510     -0.007266     -0.010509
O      5.55314      8.17896      7.67883        -0.003820      0.010371      0.007064
O      8.08882      5.70756      7.62184        -0.000416     -0.010640     -0.007327
O      2.79266      5.35005      7.67949        -0.005745      0.007469      0.006570
Zr      6.53675      4.46092      7.58695         0.018581     -0.017025     -0.021073
Zr      4.34470      6.59692      7.68642        -0.017710      0.012716      0.016619
Zr      0.02696     10.81016      6.85211        -0.000847      0.004276      0.006731
