152
# total energy = -1024.35635830 eVH     10.35389      5.87395      7.64558         0.479040      0.033583      0.749507
H     10.62451     15.10445      7.64558         0.033403     -0.194194      0.609652
H     10.62451      5.87395     13.33282         0.097136      0.159983     -0.570368
H     10.35389     15.10445     13.33282        -0.451241     -0.044539     -0.762342
H      7.64558     10.35389      5.87395         0.339391      0.016640      0.165488
H      7.64558     10.62451     15.10445         0.899604     -0.283723      0.006063
H     13.33282     10.62451      5.87395        -0.756874     -0.062789      0.155312
H     13.33282     10.35389     15.10445        -0.884256     -0.405026      0.210306
H      5.87395      7.64558     10.35389         0.191624      0.705114     -0.231676
H     15.10445      7.64558     10.62451        -0.139205      0.394658     -0.032580
H      5.87395     13.33282     10.62451         0.159289     -0.524706     -0.115571
H     15.10445     13.33282     10.35389        -0.087747     -1.200709      0.040695
H      5.87395     10.35389      7.64558         0.138415      0.150199      0.518959
H     15.10445     10.62451      7.64558        -0.000089      0.107631      1.037323
H      5.87395     10.62451     13.33282         0.093761     -0.049141     -0.432539
H     15.10445     10.35389     13.33282        -0.139357     -0.169294     -0.504013
H     10.35389      7.64558      5.87395         0.074786      0.991025      0.229970
H     10.62451      7.64558     15.10445         0.004750      0.273213     -0.170243
H     10.62451     13.33282      5.87395        -0.100803     -0.409195      0.323792
H     10.35389     13.33282     15.10445        -0.446108     -0.614538     -0.012164
H      7.64558      5.87395     10.35389         0.493331      0.107233     -0.034964
H      7.64558     15.10445     10.62451         0.918476     -0.242194     -0.118484
H     13.33282      5.87395     10.62451        -0.588851      0.121142     -0.073054
H     13.33282     15.10445     10.35389        -0.596673     -0.053999      0.231443
H     12.45634     12.45634     19.01126         0.235591      0.278595     -0.236187
H     19.01126     19.01126     19.01126        -0.250999     -0.247399     -0.242726
H     19.01126     12.45634     12.45634        -0.265184      0.266032      0.220333
H     12.45634     19.01126     12.45634         0.235673     -0.265803      0.239621
C     10.35284      5.61067      6.59456        -0.197076     -0.666157      0.078128
C     10.62556     15.36773      6.59456        -0.035144      0.387205     -0.814695
C     10.62556      5.61067     14.38384        -0.006918     -0.057738      0.691312
C     10.35284     15.36773     14.38384         0.172797      0.711801      0.174581
C      6.59456     10.35284      5.61067        -0.345058     -0.020960     -0.288636
C      6.59456     10.62556     15.36773        -1.042837      0.301710      0.321020
C     14.38384     10.62556      5.61067         0.416935      0.347229     -0.656434
C     14.38384     10.35284     15.36773         1.018548      0.002809      0.294955
C      5.61067      6.59456     10.35284        -0.364917     -0.400266      0.363674
C     15.36773      6.59456     10.62556         0.192511     -0.512539      0.022251
C      5.61067     14.38384     10.62556        -0.200228      0.590230      0.011319
C     15.36773     14.38384     10.35284         0.349963      0.058562     -0.155538
C      5.61067     10.35284      6.59456        -0.319206     -0.076883     -0.999592
C     15.36773     10.62556      6.59456         0.840841     -0.335364     -0.963779
C      5.61067     10.62556     14.38384        -0.453521      0.026114      0.283569
C     15.36773     10.35284     14.38384         0.661492     -0.095367      1.084343
C     10.35284      6.59456      5.61067        -0.243035     -0.567334     -0.901777
C     10.62556      6.59456     15.36773         0.054639     -0.277064      0.052766
C     10.62556     14.38384      5.61067         0.087337      1.205917     -0.429301
C     10.35284     14.38384     15.36773         0.245512      0.143803      0.706104
C      6.59456      5.61067     10.35284        -0.249962     -0.743078      0.107401
C      6.59456     15.36773     10.62556        -1.211154      0.263163      0.131104
C     14.38384      5.61067     10.62556         0.984064     -0.290045      0.031072
C     14.38384     15.36773     10.35284        -0.517677      0.793922     -0.394356
C     10.40319      3.19606      7.29314        -0.023710      0.855240     -0.401655
C     10.35913      4.25547      6.23373         0.054533     -0.492209      0.556926
C      0.08601      7.29314      7.29314        -0.020464     -0.452765     -0.349355
C      0.13007      6.23373      6.23373        -0.021170      0.016021      0.101091
C      0.08601      3.19606      3.19606         0.005673      1.260493      0.189675
C      0.13007      4.25547      4.25547        -0.048385     -0.218196     -0.210287
C     10.40319      7.29314      3.19606        -0.009168     -1.037077      0.377117
C     10.35913      6.23373      4.25547         0.032245      0.467208     -0.657631
C      7.29314     10.40319      3.19606        -0.329870      0.037780      0.735398
C      6.23373     10.35913      4.25547         0.177119      0.081090     -0.101995
C      7.29314      0.08601      7.29314        -0.615519     -0.023835     -0.268460
C      6.23373      0.13007      6.23373         0.382362     -0.079422      0.485424
C      3.19606      0.08601      3.19606         0.973953     -0.008743      0.276745
C      4.25547      0.13007      4.25547        -0.122952     -0.040590     -0.512604
C      3.19606     10.40319      7.29314         0.416677     -0.010504     -0.905980
C      4.25547     10.35913      6.23373        -0.271377      0.099622      0.252616
C      3.19606      7.29314     10.40319         0.500495     -1.317311     -0.042496
C      4.25547      6.23373     10.35913        -0.482662      0.779830      0.096592
C      7.29314      7.29314      0.08601        -0.400115     -0.221527     -0.003921
C      6.23373      6.23373      0.13007         0.159553      0.147229     -0.006181
C      3.19606      3.19606      0.08601         0.248977      0.261132     -0.017796
C      4.25547      4.25547      0.13007        -0.113272     -0.055218      0.012789
C      7.29314      3.19606     10.40319        -0.377918      0.659942      0.008475
C      6.23373      4.25547     10.35913         1.120814     -0.029070      0.041542
O     10.43466      3.58206      8.50569        -0.027501      0.049654      0.444961
O     10.54374     17.39634      8.50569        -0.006302     -0.098732      0.447048
O     10.54374      3.58206     12.47271         0.041453     -0.103316     -0.134195
O     10.43466     17.39634     12.47271        -0.058199     -0.048876     -0.474358
O      8.50569     10.43466      3.58206         0.300650     -0.033006     -0.033205
O      8.50569     10.54374     17.39634         0.696732      0.025104     -0.182808
O     12.47271     10.54374      3.58206        -0.772136     -0.041334      0.149183
O     12.47271     10.43466     17.39634        -0.341234     -0.026262      0.009228
O      3.58206      8.50569     10.43466         0.154451      1.083436     -0.024521
O     17.39634      8.50569     10.54374        -0.093106      0.419638      0.059993
O      3.58206     12.47271     10.54374         0.068938     -0.404792      0.038388
O     17.39634     12.47271     10.43466        -0.161418     -0.688369     -0.003935
O      3.58206     10.43466      8.50569         0.053106     -0.071757      0.756932
O     17.39634     10.54374      8.50569        -0.066475      0.045727      0.341119
O      3.58206     10.54374     12.47271        -0.012659      0.034544     -0.259546
O     17.39634     10.43466     12.47271        -0.248670      0.009554     -0.713177
O     10.43466      8.50569      3.58206         0.115477      0.827238      0.197167
O     10.54374      8.50569     17.39634         0.035384      0.648024     -0.154691
O     10.54374     12.47271      3.58206        -0.000561     -1.013663      0.183986
O     10.43466     12.47271     17.39634        -0.030542     -0.909054     -0.203019
O      8.50569      3.58206     10.43466         0.546352      0.114679     -0.016620
O      8.50569     17.39634     10.54374         0.520964     -0.204544     -0.011778
O     12.47271      3.58206     10.54374        -0.467847      0.156822      0.057021
O     12.47271     17.39634     10.43466        -0.406196      0.027367     -0.006747
O     11.90042     11.90042     19.56718        -0.267076     -0.328107      0.255504
O     19.56718     19.56718     19.56718         0.281751      0.289037      0.284619
O     19.56718     11.90042     11.90042         0.297839     -0.301752     -0.202305
O     11.90042     19.56718     11.90042        -0.268672      0.284423     -0.248013
O      9.45224      1.03696      9.45224        -0.080514      0.047792     -0.058626
O      1.03696      9.45224      9.45224         0.039672     -0.158257     -0.118507
O      1.03696      1.03696      1.03696         0.018038      0.117778      0.202560
O      9.45224      9.45224      1.03696        -0.066155     -0.086821      0.122086
Zr     10.48920      2.52580     10.48920        -0.042768     -0.116327     -0.169125
Zr     10.48920     18.45260     10.48920         0.018592      0.220125     -0.023982
Zr     10.48920     10.48920      2.52580        -0.140641     -0.187157     -0.525110
Zr     10.48920     10.48920     18.45260        -0.035857      0.014631      0.459777
Zr      2.52580     10.48920     10.48920        -0.361146      0.292045      0.171870
Zr     18.45260     10.48920     10.48920         0.203441      0.047840     -0.217700
Pd      8.45040      9.80924     13.24197        -0.058091     -0.045902     -0.031972
Pd     10.51758      9.48279     10.21237         0.071270     -0.057000     -0.025039
Pd     13.20145      8.72729     12.46376        -0.077664      0.039000      0.003366
Pd     10.38216     10.71826     15.06536        -0.044987     -0.002751     -0.016673
Pd     12.89205     11.34122     13.51156         0.026288      0.051520      0.007907
Pd     14.87682     10.68007     11.33774         0.026147     -0.001852      0.005856
Pd      6.85019      7.68547     12.35516         0.016957     -0.023701      0.014804
Pd      9.21806      7.22520      9.50971         0.005855      0.012671      0.026000
Pd      9.53922      7.55803     12.23632        -0.023915      0.010250      0.007646
Pd     11.74138      7.13349     10.85998         0.035242      0.023611     -0.028927
Pd     11.62543      7.82971      8.28728         0.008185      0.047384      0.067173
Pd      7.15340     11.71818     11.56458         0.007039      0.008646      0.052044
Pd      9.25909     14.32621      9.30892        -0.005757     -0.015304      0.006317
Pd      8.14124     12.37324     14.11654         0.032136     -0.070274     -0.056815
Pd     14.23460     14.22219      8.33062        -0.062535     -0.007578      0.025825
Pd     11.72399     13.34294      8.81461         0.048942     -0.063587     -0.060491
Pd     14.11118     11.65863      8.97589        -0.007036     -0.085150      0.052836
Pd      8.71950     13.96886     12.06903         0.030439     -0.040636     -0.008675
Pd     12.20805     13.95231     13.95424         0.011967     -0.006374      0.003428
Pd     11.38728     14.10985     11.32794         0.007109      0.031618      0.024193
Pd     14.01339     13.34804     12.08480        -0.019809     -0.018023      0.028230
Pd     12.27425     11.54913     10.88900         0.057283     -0.018595     -0.053989
Pd     12.96683     12.63789      6.59374         0.012660     -0.005798      0.036335
Pd     13.95589      8.84058      7.57641        -0.013131      0.008414      0.027649
Pd      6.97586      8.46968      8.43403         0.017605      0.001612     -0.010261
Pd      5.55465     10.04896     10.09150        -0.017834     -0.018698      0.031460
Pd      9.40033      9.46956      7.51259         0.015939      0.037073     -0.028966
Pd      8.49169      6.98084      6.92078        -0.014079      0.017603     -0.027121
Pd      9.64680     11.93719     10.55713         0.042384      0.091448      0.063899
Pd     11.81208     10.62906      8.06286        -0.082823      0.019821      0.005034
Pd     11.77512      8.95116      5.87594        -0.024130     -0.017275     -0.011233
Pd     10.57899     11.34234      5.75601        -0.023754     -0.012568      0.059908
Ir     10.91904      9.74487     12.70675        -0.013795     -0.006556      0.018876
Ir     13.17863      9.28308      9.96015        -0.079436     -0.016028     -0.057364
Ir     10.49674     12.20028     12.92231        -0.047647      0.045558     -0.049045
Ir      7.73620     11.02766      9.06861        -0.027077     -0.050404     -0.016481
Ir      9.58306     12.08164      7.99640         0.034310     -0.035301     -0.074473
Ir      8.03939      9.25798     10.75144        -0.062038     -0.066792     -0.017811
