35
# total energy = -301.58254920 eVC      6.68704     10.29555      7.65685         0.011986      0.019075     -0.007188
C      8.07461      9.94585      7.58172        -0.013217     -0.003241     -0.000874
C      9.41791      5.71155      7.64928        -0.020309     -0.001852     -0.007297
C      1.46303      5.34652      7.67443         0.013435     -0.005586      0.008767
C      4.19464      0.76179      7.63774        -0.001981     -0.003620     -0.007447
C      2.80660      1.11083      7.56734         0.020094      0.014364     -0.007088
C      0.70491      4.16503      7.64942        -0.024916     -0.020429     -0.004131
C      1.08880      2.78651      7.57412         0.026436      0.016809      0.002500
C      5.35730      1.54940      7.64340        -0.005745      0.019252     -0.005438
C      5.52425      9.50850      7.67913         0.018939     -0.004611      0.009767
C     10.17672      6.89276      7.64487         0.017343      0.019559     -0.006586
C      9.79374      8.27160      7.57545        -0.026209     -0.009067     -0.004515
C      0.77639      6.57570      7.65035         0.028484      0.020283     -0.001729
C      1.26355      7.92196      7.57871        -0.011809      0.020269      0.002972
C     10.10481      4.48239      7.64281        -0.018569     -0.032333     -0.003383
C      9.61891      3.13598      7.56411         0.017130     -0.017458     -0.004525
C      4.27872     10.16453      7.65592        -0.039535     -0.027212     -0.004349
C      2.94471      9.64443      7.58137        -0.020463      0.014748      0.003399
C      6.60335      0.89331      7.63691         0.021516      0.016111     -0.003081
C      7.93730      1.41261      7.55977         0.017068     -0.028537     -0.000790
N      8.80824      0.32216      7.47396        -0.009409      0.037216      0.009141
N      0.15343      8.76648      7.48579         0.025124     -0.022933      0.010484
N      8.54359      8.70789      7.60117        -0.021260     -0.038377      0.013103
N      2.33893      2.34936      7.59455         0.014734      0.031570      0.013147
N      2.07315     10.73352      7.48902         0.014790     -0.030824      0.009886
N     10.73039      2.29222      7.48034        -0.029566      0.008999      0.005955
N      2.57687      8.32180      7.59707        -0.000633      0.001993      0.020607
N      8.30574      2.73505      7.57224         0.000215      0.004268      0.013846
O      5.32640      2.87831      7.60581         0.026284      0.014615     -0.016747
O      5.55599      8.17950      7.69390        -0.026938     -0.019906      0.017989
O      8.08862      5.70996      7.61067        -0.002279     -0.021275     -0.017843
O      2.79242      5.34730      7.69272         0.020674      0.034755      0.015577
Zr      6.54070      4.45748      7.55036        -0.031075      0.014350     -0.028337
Zr      4.34249      6.59957      7.71242         0.014635     -0.028953      0.017826
Zr      0.02692     10.81031      6.85877        -0.004974      0.007980     -0.043617
