152
# total energy = -1110.39971301 eVH     10.35389      5.87395      7.64558        -0.412384     -0.123475      1.214495
H     10.62451     15.10445      7.64558         0.310850      0.077507      0.901821
H     10.62451      5.87395     13.33282        -0.313161     -0.670134     -1.297033
H     10.35389     15.10445     13.33282        -0.574757      0.435182     -0.347255
H      7.64558     10.35389      5.87395         0.563892     -0.510750     -0.107019
H      7.64558     10.62451     15.10445         0.391933     -0.229593      0.040785
H     13.33282     10.62451      5.87395        -0.600893      0.656336     -0.059461
H     13.33282     10.35389     15.10445        -0.522853      0.366580      0.141082
H      5.87395      7.64558     10.35389         0.148461      0.564737      0.023191
H     15.10445      7.64558     10.62451         0.420943      1.042876      0.308169
H      5.87395     13.33282     10.62451        -0.217621     -0.512187      0.362158
H     15.10445     13.33282     10.35389         0.028771     -0.296431     -0.380995
H      5.87395     10.35389      7.64558        -0.118932     -0.442800      1.517615
H     15.10445     10.62451      7.64558         0.222030      0.537985      1.340390
H      5.87395     10.62451     13.33282        -0.227390     -0.371894     -1.215983
H     15.10445     10.35389     13.33282         0.615184      1.045370     -1.534299
H     10.35389      7.64558      5.87395        -0.611589      0.551899     -0.165022
H     10.62451      7.64558     15.10445        -0.126324      0.421561      0.139776
H     10.62451     13.33282      5.87395         0.860622     -1.300302     -0.307579
H     10.35389     13.33282     15.10445         0.202606     -0.561133     -0.115941
H      7.64558      5.87395     10.35389         0.735617      0.154172     -0.189796
H      7.64558     15.10445     10.62451         1.984750      0.726549      0.238613
H     13.33282      5.87395     10.62451        -2.608565     -0.844028     -0.555206
H     13.33282     15.10445     10.35389        -0.872219     -0.060171     -0.252902
H     12.45634     12.45634     19.01126         0.271879      0.257667     -0.227930
H     19.01126     19.01126     19.01126        -0.266625     -0.254602     -0.239313
H     19.01126     12.45634     12.45634        -0.284775      0.282186      0.183477
H     12.45634     19.01126     12.45634         0.257005     -0.250501      0.235291
C     10.35284      5.61067      6.59456         0.083423     -0.453404     -1.179463
C     10.62556     15.36773      6.59456         0.204330      0.753999     -0.809784
C     10.62556      5.61067     14.38384         0.167667     -0.287319      1.776949
C     10.35284     15.36773     14.38384         0.078495      0.380279      1.779075
C      6.59456     10.35284      5.61067        -1.141299     -0.111957     -0.923315
C      6.59456     10.62556     15.36773        -0.699522     -0.089238      0.815275
C     14.38384     10.62556      5.61067         0.812731     -0.115172     -0.974333
C     14.38384     10.35284     15.36773         1.154935      0.167343      1.079573
C      5.61067      6.59456     10.35284        -0.669859     -0.916946     -0.193692
C     15.36773      6.59456     10.62556         2.039954     -0.363154     -0.187689
C      5.61067     14.38384     10.62556        -1.570360     -0.021825     -0.141712
C     15.36773     14.38384     10.35284         0.481860      0.099503     -0.006210
C      5.61067     10.35284      6.59456        -0.273424      0.229862     -1.362079
C     15.36773     10.62556      6.59456         0.307411     -0.287398     -0.960179
C      5.61067     10.62556     14.38384        -0.263473      0.459933      1.452769
C     15.36773     10.35284     14.38384        -0.042854     -0.535619      1.938797
C     10.35284      6.59456      5.61067        -0.143259     -0.817460     -0.715952
C     10.62556      6.59456     15.36773        -0.120538     -0.688806      1.031006
C     10.62556     14.38384      5.61067        -0.495936      1.972789     -0.733545
C     10.35284     14.38384     15.36773        -0.245730      1.314149      0.513393
C      6.59456      5.61067     10.35284        -1.010734     -0.405528      0.103186
C      6.59456     15.36773     10.62556        -1.231434      0.361477     -0.334295
C     14.38384      5.61067     10.62556         1.250957     -1.310069      0.257190
C     14.38384     15.36773     10.35284         0.455531      0.305059      0.093889
C     10.40319      3.19606      7.29314         0.001455      0.305879     -0.120982
C     10.35913      4.25547      6.23373         0.142683     -0.613470      0.020725
C      0.08601      7.29314      7.29314        -0.054151     -0.266117     -0.415549
C      0.13007      6.23373      6.23373        -0.126528      0.642959      0.008068
C      0.08601      3.19606      3.19606        -0.105190      1.684684      0.161935
C      0.13007      4.25547      4.25547        -0.108490     -0.384919     -1.188116
C     10.40319      7.29314      3.19606         0.016581     -0.469056      0.120576
C     10.35913      6.23373      4.25547         0.265746      0.091291     -0.556246
C      7.29314     10.40319      3.19606        -1.716414      0.014039      0.325950
C      6.23373     10.35913      4.25547         0.686447      0.082981     -0.631762
C      7.29314      0.08601      7.29314        -0.414214     -0.017966     -0.324661
C      6.23373      0.13007      6.23373         0.757879     -0.060688      0.231887
C      3.19606      0.08601      3.19606         0.665823     -0.020160      0.176865
C      4.25547      0.13007      4.25547        -0.342586     -0.091846     -0.602818
C      3.19606     10.40319      7.29314         0.334989      0.026946     -0.322920
C      4.25547     10.35913      6.23373        -0.750214      0.089763      0.356186
C      3.19606      7.29314     10.40319         0.280015     -0.197991     -0.006713
C      4.25547      6.23373     10.35913         0.041530      0.623546      0.091637
C      7.29314      7.29314      0.08601        -0.708485     -0.604348     -0.035578
C      6.23373      6.23373      0.13007         0.904687      1.121610     -0.062689
C      3.19606      3.19606      0.08601         0.829605      0.515565     -0.007284
C      4.25547      4.25547      0.13007        -0.310820     -1.781906     -0.134615
C      7.29314      3.19606     10.40319        -0.321694      0.268914     -0.005226
C      6.23373      4.25547     10.35913         0.516956     -0.017157      0.233481
O     10.43466      3.58206      8.50569        -0.048649      0.190034      0.261954
O     10.54374     17.39634      8.50569         0.042247     -0.238475      0.488779
O     10.54374      3.58206     12.47271         0.084801     -0.084491     -0.014683
O     10.43466     17.39634     12.47271        -0.023641     -0.140492     -0.263625
O      8.50569     10.43466      3.58206         0.996471      0.194648      0.368793
O      8.50569     10.54374     17.39634         0.585153      0.083880     -0.230421
O     12.47271     10.54374      3.58206        -0.407352     -0.042504      0.177878
O     12.47271     10.43466     17.39634        -0.498463     -0.065573     -0.189892
O      3.58206      8.50569     10.43466         0.185302      0.419171     -0.028138
O     17.39634      8.50569     10.54374        -0.229339      0.707736      0.047729
O      3.58206     12.47271     10.54374         0.162070     -0.683600      0.027333
O     17.39634     12.47271     10.43466        -0.187827     -0.472755     -0.009353
O      3.58206     10.43466      8.50569         0.237214     -0.063615      0.409827
O     17.39634     10.54374      8.50569        -0.172713      0.037535      0.414055
O      3.58206     10.54374     12.47271         0.149145      0.021580     -0.303773
O     17.39634     10.43466     12.47271         0.088609     -0.053559     -0.062903
O     10.43466      8.50569      3.58206         0.009648      0.275669      0.185490
O     10.54374      8.50569     17.39634         0.068774      0.418344     -0.169938
O     10.54374     12.47271      3.58206        -0.221304     -0.978341      0.317833
O     10.43466     12.47271     17.39634        -0.080740     -0.455064     -0.245608
O      8.50569      3.58206     10.43466         0.485212      0.197992     -0.008455
O      8.50569     17.39634     10.54374         0.662013     -0.206930      0.023586
O     12.47271      3.58206     10.54374        -0.749391      0.284309      0.040845
O     12.47271     17.39634     10.43466        -0.429337     -0.207541     -0.042981
O     11.90042     11.90042     19.56718        -0.347487     -0.306497      0.262569
O     19.56718     19.56718     19.56718         0.322976      0.311344      0.285514
O     19.56718     11.90042     11.90042         0.272748     -0.271567     -0.136712
O     11.90042     19.56718     11.90042        -0.304928      0.281006     -0.232508
O      9.45224      1.03696      9.45224        -0.063215      0.074274     -0.043157
O      1.03696      9.45224      9.45224         0.035681     -0.076872     -0.068584
O      1.03696      1.03696      1.03696         0.067612      0.157024      0.090350
O      9.45224      9.45224      1.03696        -0.150201     -0.104048      0.091117
Zr     10.48920      2.52580     10.48920         0.168759     -0.178949     -0.171712
Zr     10.48920     18.45260     10.48920        -0.101272      0.192155     -0.054375
Zr     10.48920     10.48920      2.52580         0.353318     -0.311650     -0.212658
Zr     10.48920     10.48920     18.45260         0.021820     -0.090712      0.195834
Zr      2.52580     10.48920     10.48920        -0.075158      0.182943     -0.052842
Zr     18.45260     10.48920     10.48920         0.152616     -0.136163     -0.256118
Ir     12.03478     12.47970     10.45174        -0.000106      0.000844     -0.002229
Ir     11.23606      7.41079     10.19956         0.005228     -0.003489     -0.013226
Ir      8.86290      7.33515     11.48914        -0.002285     -0.004347     -0.009415
Ir      7.44202     11.64707      7.65793        -0.007166     -0.001393     -0.001445
Ir     11.59727     12.05816      7.10312         0.001305     -0.002443     -0.003420
Ir     13.79762      8.99322      7.49482         0.001742     -0.003091     -0.013752
Ir     12.46382     13.94722      8.39768        -0.002575     -0.004962     -0.003394
Ir      9.75044     11.24886      5.52122         0.002504     -0.003609     -0.003225
Ir      9.07162     13.42187      7.07870        -0.001314     -0.007443     -0.000616
Ir      9.25289      9.68463      7.48036         0.001026      0.002635     -0.003951
Ir     13.28081      7.02138     11.97361        -0.002760     -0.007523      0.006346
Ir     13.67457      7.04519      9.09723         0.009725     -0.004617     -0.004162
Ir     11.04059      7.58280     12.76038        -0.001735     -0.004332     -0.010914
Ir     13.58732     11.56207      8.74532        -0.002268      0.000596     -0.002644
Ir     11.49755      9.59908      6.20332        -0.002054     -0.004684     -0.008292
Ir      7.16794      9.13195      8.90815         0.005894     -0.001658     -0.001494
Ir     14.06443     11.43974     11.63503         0.001745     -0.004560     -0.004678
Ir     11.66458      9.79904      8.83394        -0.002832     -0.004100     -0.009704
Ir      9.45137      9.48921     10.21042         0.002559      0.000837     -0.006286
Ir     13.88937      9.41595     10.14668         0.005754     -0.002914     -0.007098
Ir     13.86304      9.15532     12.85257         0.010793     -0.007786     -0.007013
Ir     11.71484      9.75118     11.51467         0.004912     -0.000207     -0.007287
Ir      9.92539     11.71704      8.95548         0.004926     -0.007351      0.000683
Ir      9.13887      7.43950      8.72270         0.003126      0.001018     -0.010410
Ir     11.69591      7.48102      7.67827         0.008767     -0.012806     -0.014277
Ir      9.25490      9.45079     12.99148        -0.000863     -0.001626     -0.002752
Ir      7.50265     13.89612      8.99500        -0.001301     -0.000220     -0.000467
Ir     10.85350     14.08558     11.95638        -0.001569     -0.004505      0.000198
Ir     10.11168     14.13326      9.51068         0.001433     -0.000355     -0.000915
Ir      9.79050     11.66533     11.72082         0.003401     -0.003269     -0.001451
Ir      7.59536     11.55234     10.20181         0.003749     -0.002190     -0.003549
Ir      8.34067     13.72193     11.57931         0.000826     -0.002721     -0.001369
Ir      7.52745     11.52304     12.81703         0.001964     -0.004630     -0.001883
Ir      9.79319     11.56090     14.34150         0.006530     -0.009869     -0.000725
Ir     13.45835     13.87838     12.18296         0.000529     -0.003231     -0.000649
Ir     11.99247     12.02839     13.07059        -0.001058     -0.004466     -0.001970
Ir     11.59917      9.74894     14.14932         0.005499     -0.009359     -0.009337
Ir      7.16244      9.33064     11.46293         0.003839     -0.002081     -0.006412
