26
# total energy = -182.09295584 eVH      3.19975      7.07463      0.00000        -0.003120      0.003081      0.000000
H      6.04259      2.16771      0.00000         0.003120     -0.003081     -0.000000
H      2.16771      3.19975      0.00000        -0.003081     -0.003120     -0.000000
H      7.07463      6.04259     -0.00000         0.003081      0.003120     -0.000000
H      6.04259      7.07463     -0.00000         0.003120      0.003081     -0.000000
H      3.19975      2.16771     -0.00000        -0.003120     -0.003081     -0.000000
H      7.07463      3.19975     -0.00000         0.003081     -0.003120      0.000000
H      2.16771      6.04259      0.00000        -0.003081      0.003120     -0.000000
C      8.51149      1.75966     -0.00000         0.002775      0.001458      0.000000
C      0.73085      7.48268     -0.00000        -0.002775     -0.001458     -0.000000
C      7.48268      8.51149     -0.00000        -0.001458      0.002775      0.000000
C      1.75966      0.73085     -0.00000         0.001458     -0.002775     -0.000000
C      0.73085      1.75966      0.00000        -0.002775      0.001458      0.000000
C      8.51149      7.48268     -0.00000         0.002775     -0.001458     -0.000000
C      1.75966      8.51149     -0.00000         0.001458      0.002775      0.000000
C      7.48268      0.73085      0.00000        -0.001458     -0.002775      0.000000
N      8.07699      3.05834     -0.00000         0.001998     -0.002860      0.000000
N      1.16535      6.18400      0.00000        -0.001998      0.002860      0.000000
N      6.18400      8.07699      0.00000         0.002860      0.001998     -0.000000
N      3.05834      1.16535     -0.00000        -0.002860     -0.001998     -0.000000
N      1.16535      3.05834      0.00000        -0.001998     -0.002860     -0.000000
N      8.07699      6.18400     -0.00000         0.001998      0.002860     -0.000000
N      3.05834      8.07699     -0.00000        -0.002860      0.001998      0.000000
N      6.18400      1.16535      0.00000         0.002860     -0.001998      0.000000
Ir      0.00000      4.62117      0.00000         0.000000     -0.000000     -0.000000
Ir      4.62117      0.00000      0.00000        -0.000000      0.000000     -0.000000
