152
# total energy = -1003.30257833 eVH     10.35389      5.87395      7.64558        -0.138857      0.213631      0.801898
H     10.62451     15.10445      7.64558        -0.452677     -0.067233      1.150809
H     10.62451      5.87395     13.33282         0.107085     -0.022393     -0.820195
H     10.35389     15.10445     13.33282        -0.021278     -0.175292     -0.690296
H      7.64558     10.35389      5.87395         0.595221      0.128952     -0.081986
H      7.64558     10.62451     15.10445         0.820112      0.578584     -0.017191
H     13.33282     10.62451      5.87395        -0.694834      0.058016      0.223159
H     13.33282     10.35389     15.10445        -0.611654     -0.160469     -0.017352
H      5.87395      7.64558     10.35389        -0.032379      1.761817      0.329801
H     15.10445      7.64558     10.62451        -0.031959      0.943243      0.039737
H      5.87395     13.33282     10.62451         0.188701     -0.828594      0.183358
H     15.10445     13.33282     10.35389        -0.001782     -1.108281     -0.120897
H      5.87395     10.35389      7.64558        -0.290978      0.191069      1.023417
H     15.10445     10.62451      7.64558         0.064322      0.810025      1.490820
H      5.87395     10.62451     13.33282        -0.028191      0.482905     -1.389036
H     15.10445     10.35389     13.33282         0.607722      0.091252     -1.007455
H     10.35389      7.64558      5.87395         0.356976      1.388781     -0.040522
H     10.62451      7.64558     15.10445         0.594173      1.136407     -0.019780
H     10.62451     13.33282      5.87395        -0.592272     -0.756920      0.145514
H     10.35389     13.33282     15.10445        -0.086273     -0.424264     -0.161051
H      7.64558      5.87395     10.35389         1.090488     -0.211952     -0.202170
H      7.64558     15.10445     10.62451         0.665240     -0.211927      0.074915
H     13.33282      5.87395     10.62451        -0.965434      0.041109      0.412586
H     13.33282     15.10445     10.35389        -0.327372     -0.094581     -0.033981
H     12.45634     12.45634     19.01126         0.267642      0.232084     -0.248712
H     19.01126     19.01126     19.01126        -0.268030     -0.259674     -0.225796
H     19.01126     12.45634     12.45634        -0.272814      0.254530      0.233319
H     12.45634     19.01126     12.45634         0.257801     -0.270677      0.230595
C     10.35284      5.61067      6.59456        -0.113960     -0.922600     -0.931039
C     10.62556     15.36773      6.59456         0.213354      0.386209     -0.767394
C     10.62556      5.61067     14.38384        -0.213775     -0.765871      0.888822
C     10.35284     15.36773     14.38384         0.032148      0.260362      0.768841
C      6.59456     10.35284      5.61067        -0.921714      0.124566     -0.668709
C      6.59456     10.62556     15.36773        -0.779176      0.194293      0.787516
C     14.38384     10.62556      5.61067         0.745473      0.100880     -0.803081
C     14.38384     10.35284     15.36773         1.235989      0.054661      0.696960
C      5.61067      6.59456     10.35284        -0.800513     -0.897424     -0.041307
C     15.36773      6.59456     10.62556         0.589980      0.041682     -0.090922
C      5.61067     14.38384     10.62556        -0.424527      0.926586     -0.066254
C     15.36773     14.38384     10.35284         0.418653      1.250605     -0.119657
C      5.61067     10.35284      6.59456        -0.257366     -0.022755     -1.252663
C     15.36773     10.62556      6.59456         0.372584     -0.111006     -1.120187
C      5.61067     10.62556     14.38384        -0.498555     -0.021131      1.032726
C     15.36773     10.35284     14.38384         0.086304     -0.047695      1.421179
C     10.35284      6.59456      5.61067        -0.116460     -1.194943     -0.537546
C     10.62556      6.59456     15.36773        -0.040863     -0.945198      0.762264
C     10.62556     14.38384      5.61067        -0.034124      1.091743     -0.776216
C     10.35284     14.38384     15.36773        -0.034203      0.425160      0.299193
C      6.59456      5.61067     10.35284        -0.787685     -1.231823      0.135211
C      6.59456     15.36773     10.62556        -0.777939      0.476258      0.022722
C     14.38384      5.61067     10.62556         0.277086     -0.698845     -0.121326
C     14.38384     15.36773     10.35284         0.148586      0.504029     -0.019209
C     10.40319      3.19606      7.29314        -0.021591      0.290070     -1.062712
C     10.35913      4.25547      6.23373        -0.026396     -0.465591      0.147494
C      0.08601      7.29314      7.29314        -0.051280     -0.893687     -0.299154
C      0.13007      6.23373      6.23373         0.025094      0.415256      0.617129
C      0.08601      3.19606      3.19606         0.006045      0.902303      0.411182
C      0.13007      4.25547      4.25547         0.026046     -0.548888     -0.399910
C     10.40319      7.29314      3.19606        -0.030582     -0.479860      0.221348
C     10.35913      6.23373      4.25547         0.012606      0.245936     -0.583486
C      7.29314     10.40319      3.19606        -0.335345      0.003832      0.184590
C      6.23373     10.35913      4.25547         0.204757     -0.039773     -0.280832
C      7.29314      0.08601      7.29314        -0.958982     -0.092517     -0.341416
C      6.23373      0.13007      6.23373         0.599873     -0.218879      0.432719
C      3.19606      0.08601      3.19606         0.920734     -0.052381      0.288129
C      4.25547      0.13007      4.25547        -0.539216     -0.207227     -0.417381
C      3.19606     10.40319      7.29314         0.372366      0.006301     -0.184165
C      4.25547     10.35913      6.23373        -0.246315     -0.025605      0.261644
C      3.19606      7.29314     10.40319         0.309288     -0.459457      0.013161
C      4.25547      6.23373     10.35913        -0.914911      0.040356      0.093391
C      7.29314      7.29314      0.08601        -0.436994     -0.352663     -0.031587
C      6.23373      6.23373      0.13007         0.724006      0.095753      0.005510
C      3.19606      3.19606      0.08601         0.788510      0.369483     -0.023421
C      4.25547      4.25547      0.13007        -0.089605     -0.839686     -0.056163
C      7.29314      3.19606     10.40319        -0.489899      0.445854     -0.000416
C      6.23373      4.25547     10.35913         0.364674     -0.791662      0.077353
O     10.43466      3.58206      8.50569         0.104505      0.260518      0.853309
O     10.54374     17.39634      8.50569         0.044485     -0.070458      0.314295
O     10.54374      3.58206     12.47271         0.035695      0.039249     -0.377920
O     10.43466     17.39634     12.47271        -0.037607     -0.134391     -0.392050
O      8.50569     10.43466      3.58206         0.522505     -0.035069      0.181687
O      8.50569     10.54374     17.39634         0.839131     -0.050617     -0.208875
O     12.47271     10.54374      3.58206        -0.815208      0.151553      0.218603
O     12.47271     10.43466     17.39634        -0.484186      0.005068     -0.183908
O      3.58206      8.50569     10.43466         0.188853      0.611042     -0.030822
O     17.39634      8.50569     10.54374        -0.150522      0.529780      0.037127
O      3.58206     12.47271     10.54374         0.086014     -0.450225      0.039799
O     17.39634     12.47271     10.43466        -0.153704     -0.550824     -0.032925
O      3.58206     10.43466      8.50569         0.152417     -0.017000      0.350110
O     17.39634     10.54374      8.50569        -0.009600      0.090798      0.326098
O      3.58206     10.54374     12.47271         0.052322      0.051376     -0.325954
O     17.39634     10.43466     12.47271        -0.140850     -0.030483     -0.349045
O     10.43466      8.50569      3.58206        -0.040533      0.592285      0.196236
O     10.54374      8.50569     17.39634        -0.080213      0.780355     -0.186170
O     10.54374     12.47271      3.58206         0.158927     -0.782871      0.198939
O     10.43466     12.47271     17.39634        -0.040322     -0.268572      0.028005
O      8.50569      3.58206     10.43466         0.653254      0.163965     -0.049782
O      8.50569     17.39634     10.54374         0.580706     -0.195240      0.007009
O     12.47271      3.58206     10.54374        -0.735579      0.101005      0.011707
O     12.47271     17.39634     10.43466        -0.545112     -0.135500     -0.035976
O     11.90042     11.90042     19.56718        -0.310849     -0.237869      0.262848
O     19.56718     19.56718     19.56718         0.303714      0.311301      0.229317
O     19.56718     11.90042     11.90042         0.347947     -0.267373     -0.249625
O     11.90042     19.56718     11.90042        -0.302608      0.352742     -0.242718
O      9.45224      1.03696      9.45224        -0.019299      0.127398     -0.096748
O      1.03696      9.45224      9.45224         0.058414     -0.017379     -0.106642
O      1.03696      1.03696      1.03696         0.038682      0.121021      0.091479
O      9.45224      9.45224      1.03696        -0.035754     -0.015482      0.098485
Zr     10.48920      2.52580     10.48920        -0.183463     -0.372063      0.168545
Zr     10.48920     18.45260     10.48920         0.076775      0.072101      0.091120
Zr     10.48920     10.48920      2.52580        -0.170987     -0.228077     -0.345826
Zr     10.48920     10.48920     18.45260         0.109636      0.032346      0.282459
Zr      2.52580     10.48920     10.48920        -0.111842     -0.161719     -0.013182
Zr     18.45260     10.48920     10.48920         0.075029     -0.029700      0.066019
Pd     12.13270      8.42440     10.16743         0.066687     -0.251800     -0.036404
Pd      7.17568      9.52548     10.62236         0.093199     -0.008079      0.004183
Pd      7.05674     11.78137     11.99552        -0.224922      0.061361      0.029009
Pd     12.06415     13.69363      7.60991         0.041662     -0.138217     -0.108221
Pd     11.62553      8.05365      7.54956         0.123413     -0.172783     -0.011674
Pd      8.75117      7.45525      7.09896         0.165238      0.076190     -0.056980
Pd     11.63215     11.64893      5.89589         0.035879     -0.100947      0.030663
Pd     13.99731      9.13350      7.68193         0.024016     -0.108054     -0.038298
Pd      9.55848     11.97866      7.78833         0.116300      0.050932      0.052518
Pd      7.16375      7.08463     12.04804        -0.064760      0.026968     -0.014813
Pd      6.83875      7.54448      8.72283        -0.132785     -0.000392      0.106688
Pd      7.27386      9.21064     13.54942         0.095382     -0.011326     -0.149265
Pd     11.40043      5.86206      9.21935         0.035391      0.012574      0.120468
Pd      9.93798      9.76886      6.40150        -0.019931      0.041413     -0.075390
Pd      9.06627     14.11882      9.18534        -0.025780      0.020380     -0.008967
Pd     11.25134      6.54038     11.76179        -0.103315      0.177980     -0.118828
Pd      9.85782      9.28138      9.17109         0.046298      0.045968     -0.005036
Pd      9.16464     11.48283     10.37780         0.194895      0.046757      0.032956
Pd      9.19211      6.97015     10.11150        -0.035921      0.109925     -0.031980
Pd      8.91209      7.17115     13.99700        -0.066742     -0.081699     -0.073886
Pd      9.39072      8.94121     11.87785         0.024505     -0.008092     -0.180738
Pd     11.93193     10.76909      8.38657         0.237210     -0.063411      0.087968
Pd      6.97616     12.24183      9.25251         0.013005     -0.069368     -0.170681
Pd      7.70546      9.93094      8.02651         0.171099      0.082717     -0.007629
Pd     13.85437      6.80463      8.74919        -0.017511     -0.058312     -0.031486
Pd     13.67252      7.63843     12.22116        -0.001943      0.004130      0.034917
Pd      9.36246     11.32189     13.13794         0.077419     -0.025815     -0.073097
Pd     13.99773     12.39400      8.75513         0.005690      0.008492     -0.035731
Pd     13.41916     10.23989     12.69412         0.254619      0.020055      0.173569
Pd     14.11725     10.10288     10.17572        -0.003161     -0.004469     -0.084336
Pd     11.44542     10.72876     11.28177        -0.350433      0.133128     -0.116865
Pd     11.37471     13.12590     10.03583        -0.032843     -0.052281     -0.017216
Pd     13.66389     12.49240     11.40615        -0.017263      0.071358     -0.025858
Pd     11.52933     13.14030     12.71368        -0.067032     -0.169292     -0.073483
Pd     11.62966     11.19442     14.45294        -0.017319      0.002728      0.131300
Pd     11.43366      8.68704     13.38314         0.063118     -0.043308      0.060606
Pd      9.58908      9.61623     15.16836        -0.023401     -0.019563     -0.088521
Pd      9.09648     13.68688     11.81118        -0.071616      0.006001      0.109070
