152
# total energy = -1061.44567785 eVH     10.35389      5.87395      7.64558        -0.202586      0.128341      1.022310
H     10.62451     15.10445      7.64558         0.443904     -0.119546      0.786865
H     10.62451      5.87395     13.33282        -0.089253      0.101121     -0.452848
H     10.35389     15.10445     13.33282         0.086283     -0.192493     -0.405891
H      7.64558     10.35389      5.87395         0.883839      0.202216      0.222363
H      7.64558     10.62451     15.10445         0.210596     -0.023302     -0.070247
H     13.33282     10.62451      5.87395        -0.596114     -0.048251      0.168764
H     13.33282     10.35389     15.10445        -0.323098     -0.054938     -0.076820
H      5.87395      7.64558     10.35389         0.127189      0.362350     -0.078395
H     15.10445      7.64558     10.62451        -0.137740      0.439033      0.176065
H      5.87395     13.33282     10.62451         0.107780     -0.641944      0.126757
H     15.10445     13.33282     10.35389        -0.228865     -0.435029      0.091524
H      5.87395     10.35389      7.64558         0.155090      0.286139      0.389163
H     15.10445     10.62451      7.64558        -0.140137     -0.358359      0.735000
H      5.87395     10.62451     13.33282         0.036343      0.148763     -0.709670
H     15.10445     10.35389     13.33282         0.075231     -0.242965     -0.729653
H     10.35389      7.64558      5.87395        -0.161575      0.447351      0.213254
H     10.62451      7.64558     15.10445         0.369513      0.610563     -0.120394
H     10.62451     13.33282      5.87395         0.069472     -0.557141      0.100023
H     10.35389     13.33282     15.10445         0.259084     -0.712867     -0.090179
H      7.64558      5.87395     10.35389         0.489717      0.145656     -0.156242
H      7.64558     15.10445     10.62451         0.399249     -0.145415      0.447499
H     13.33282      5.87395     10.62451        -0.391488      0.161271     -0.077242
H     13.33282     15.10445     10.35389        -0.583783     -0.292985      0.119987
H     12.45634     12.45634     19.01126         0.230672      0.265664     -0.249233
H     19.01126     19.01126     19.01126        -0.261901     -0.259149     -0.230614
H     19.01126     12.45634     12.45634        -0.234485      0.276215      0.234980
H     12.45634     19.01126     12.45634         0.275858     -0.210651      0.256123
C     10.35284      5.61067      6.59456         0.273223     -0.303972     -0.775683
C     10.62556     15.36773      6.59456        -0.189384      0.635290     -0.305523
C     10.62556      5.61067     14.38384         0.251945     -0.234761      0.488008
C     10.35284     15.36773     14.38384        -0.111694      0.279061      0.286778
C      6.59456     10.35284      5.61067        -0.831855     -0.093471     -0.242525
C      6.59456     10.62556     15.36773        -0.516181      0.046781      0.348808
C     14.38384     10.62556      5.61067         0.784248     -0.031270     -0.628597
C     14.38384     10.35284     15.36773         0.268596     -0.071562      0.348346
C      5.61067      6.59456     10.35284        -0.409198     -0.358306      0.079015
C     15.36773      6.59456     10.62556         0.320403     -0.469036     -0.064193
C      5.61067     14.38384     10.62556        -0.151238      0.481692     -0.417284
C     15.36773     14.38384     10.35284         0.409274      0.821194     -0.095950
C      5.61067     10.35284      6.59456        -0.319712     -0.175159     -0.107110
C     15.36773     10.62556      6.59456         0.209010      0.279262     -0.579063
C      5.61067     10.62556     14.38384        -0.345575     -0.040679      1.215345
C     15.36773     10.35284     14.38384         0.294235     -0.066520      0.988835
C     10.35284      6.59456      5.61067         0.081771     -0.241192     -0.503582
C     10.62556      6.59456     15.36773         0.013360     -0.777545      0.114604
C     10.62556     14.38384      5.61067        -0.383139      0.193129     -0.927057
C     10.35284     14.38384     15.36773        -0.259505      0.832795      0.269041
C      6.59456      5.61067     10.35284        -0.354557     -0.291451      0.258653
C      6.59456     15.36773     10.62556        -0.255614      0.514394     -0.069499
C     14.38384      5.61067     10.62556         0.476796     -0.381607      0.059188
C     14.38384     15.36773     10.35284         0.976941      0.274200     -0.066521
C     10.40319      3.19606      7.29314         0.008210      0.548176     -0.313803
C     10.35913      4.25547      6.23373        -0.012819     -0.523893      0.407560
C      0.08601      7.29314      7.29314        -0.015395     -0.839350     -0.566072
C      0.13007      6.23373      6.23373        -0.193503      0.877642      0.151690
C      0.08601      3.19606      3.19606        -0.009713      0.415591      0.389227
C      0.13007      4.25547      4.25547         0.067046     -0.234116     -0.565907
C     10.40319      7.29314      3.19606        -0.045672     -1.011956      0.790791
C     10.35913      6.23373      4.25547         0.018984      0.334070     -0.233441
C      7.29314     10.40319      3.19606        -1.333401     -0.084962      0.327098
C      6.23373     10.35913      4.25547         0.264006      0.017514     -0.703031
C      7.29314      0.08601      7.29314        -0.830084     -0.002512     -0.409223
C      6.23373      0.13007      6.23373         0.325929      0.052530      0.126201
C      3.19606      0.08601      3.19606         0.320207     -0.000036      0.433562
C      4.25547      0.13007      4.25547        -0.284684     -0.031956     -0.176229
C      3.19606     10.40319      7.29314         0.494008     -0.040789     -1.034460
C      4.25547     10.35913      6.23373        -0.324941     -0.076487      0.096976
C      3.19606      7.29314     10.40319         1.078057     -0.443832      0.013188
C      4.25547      6.23373     10.35913        -0.194438      0.167444     -0.000285
C      7.29314      7.29314      0.08601        -0.513858     -0.281037     -0.007485
C      6.23373      6.23373      0.13007         0.164707      0.187971     -0.158310
C      3.19606      3.19606      0.08601         0.358247      0.885869     -0.008629
C      4.25547      4.25547      0.13007        -0.595441     -0.177570      0.037452
C      7.29314      3.19606     10.40319        -0.199388      0.492929      0.026632
C      6.23373      4.25547     10.35913        -0.010838     -0.367656      0.043350
O     10.43466      3.58206      8.50569        -0.023375      0.132862      0.389035
O     10.54374     17.39634      8.50569         0.041010      0.051337      0.368636
O     10.54374      3.58206     12.47271         0.040725      0.194889     -0.575092
O     10.43466     17.39634     12.47271         0.030227     -0.022890     -0.480831
O      8.50569     10.43466      3.58206         0.773248     -0.059710     -0.029390
O      8.50569     10.54374     17.39634         0.854688      0.021779     -0.163313
O     12.47271     10.54374      3.58206        -0.347881      0.035815      0.083119
O     12.47271     10.43466     17.39634        -0.378021     -0.036636      0.039333
O      3.58206      8.50569     10.43466        -0.101975      0.263748     -0.079694
O     17.39634      8.50569     10.54374        -0.103676      0.445389      0.044261
O      3.58206     12.47271     10.54374         0.151047     -0.825461     -0.021952
O     17.39634     12.47271     10.43466        -0.238231     -0.632460     -0.016948
O      3.58206     10.43466      8.50569         0.126585     -0.031948      0.794049
O     17.39634     10.54374      8.50569         0.002178      0.036709      0.338202
O      3.58206     10.54374     12.47271         0.066635      0.018332     -0.458576
O     17.39634     10.43466     12.47271         0.058090      0.012555     -0.239444
O     10.43466      8.50569      3.58206        -0.054451      0.548106     -0.070042
O     10.54374      8.50569     17.39634         0.029090      0.862304     -0.203674
O     10.54374     12.47271      3.58206         0.070602     -0.368442      0.072272
O     10.43466     12.47271     17.39634        -0.055242     -0.642592     -0.198600
O      8.50569      3.58206     10.43466         0.351807      0.083968     -0.052076
O      8.50569     17.39634     10.54374         0.567191     -0.169095     -0.019531
O     12.47271      3.58206     10.54374        -0.367215      0.048979      0.036473
O     12.47271     17.39634     10.43466        -0.828065     -0.143997      0.075537
O     11.90042     11.90042     19.56718        -0.243812     -0.283162      0.237588
O     19.56718     19.56718     19.56718         0.300643      0.292623      0.250226
O     19.56718     11.90042     11.90042         0.228670     -0.305399     -0.275620
O     11.90042     19.56718     11.90042        -0.274683      0.180296     -0.277038
O      9.45224      1.03696      9.45224        -0.107314      0.086167     -0.086156
O      1.03696      9.45224      9.45224         0.122001     -0.150854     -0.174070
O      1.03696      1.03696      1.03696         0.138813      0.209421     -0.002484
O      9.45224      9.45224      1.03696        -0.211651     -0.172700      0.028456
Zr     10.48920      2.52580     10.48920        -0.004588     -0.233272      0.146855
Zr     10.48920     18.45260     10.48920        -0.299185      0.311253     -0.152344
Zr     10.48920     10.48920      2.52580         0.366412      0.385236     -0.229464
Zr     10.48920     10.48920     18.45260         0.000507      0.021644      0.468612
Zr      2.52580     10.48920     10.48920        -0.559563      0.019519      0.341494
Zr     18.45260     10.48920     10.48920         0.271903     -0.142546      0.001941
Pd      9.22311     14.66860      9.22491         0.004280     -0.005475      0.008116
Pd      8.47126     13.20892     13.82294         0.001713      0.003344      0.012763
Pd     12.14252     14.13201      8.66073         0.006046      0.002964     -0.001260
Pd     12.24841     12.75779     10.89398         0.006448     -0.031952      0.017423
Pd     11.76968      7.07513     11.87462        -0.000770     -0.004752     -0.003057
Pd     11.17988     15.31213     10.95132        -0.008404     -0.001832      0.009558
Pd      9.60789     13.16624     11.40707        -0.001426     -0.008503     -0.011507
Pd     14.02182     12.40253      7.96991        -0.004110      0.003614      0.004876
Pd     11.57148     11.77901      6.74870        -0.002074     -0.005362      0.007767
Pd      7.41529      8.53236      7.19236         0.008134      0.002568      0.008378
Pd      8.60058     12.10753      6.91666         0.001751     -0.012648      0.005736
Pd      9.70241      9.91065      7.99781         0.002268      0.018426     -0.023062
Pd      8.47518     14.75648      6.58589         0.004513      0.010260     -0.003261
Pd     12.00985      9.06630      6.83266        -0.002329      0.015585     -0.008176
Pd      9.89718     10.06249      5.40113         0.003212      0.018482      0.012948
Pd      6.89728      9.21727     12.17041        -0.013849      0.003847      0.009494
Pd     12.39854      6.53818      7.65924         0.010674     -0.007914     -0.007624
Pd      5.56612     10.69231     10.10851        -0.001351      0.000180      0.013536
Pd      7.56616      6.66254     12.69326        -0.010474     -0.017344      0.006962
Ir     11.27711      9.53537     12.83478        -0.025251     -0.014874      0.001229
Ir     13.06608      9.23033     11.06992         0.004218      0.001165     -0.001175
Ir      9.14780      8.42021     13.75328         0.009255      0.002786      0.021475
Ir     10.27523     10.37237     15.06357        -0.011882     -0.010136     -0.002002
Ir      7.09946     11.91066     11.85063        -0.010515      0.006141     -0.030820
Ir     14.40082     11.18895     10.31254        -0.012636     -0.014504      0.012500
Ir     12.26550     10.62779      9.04904        -0.017319      0.019573      0.006890
Ir      8.92146     10.78855     12.89057         0.026868     -0.002850      0.008808
Ir     10.01305     10.29481     10.61040        -0.001578      0.008328      0.004896
Ir     13.29578     11.18897     12.60403         0.003876      0.013533     -0.015269
Ir     11.09351     12.03895     13.31929        -0.011815     -0.003702      0.007146
Ir      7.94855     11.74099      9.51217        -0.004531      0.031242      0.017565
Ir     11.26285      8.16258      9.43051         0.006595      0.005849      0.022730
Ir      6.98099     13.61771      8.39050         0.010587     -0.008616      0.030119
Ir      9.04507      7.29133      8.79305        -0.016883     -0.006615     -0.011579
Ir      7.72916      9.21998      9.70627        -0.003583     -0.002141     -0.004200
Ir     10.35384     12.34743      8.98023        -0.013068     -0.008640      0.004690
Ir      9.31473      7.90246     11.24859         0.018899     -0.010322     -0.023992
Ir     13.73095      8.48007      8.78134         0.015191      0.004033     -0.002497
