9
# total energy = -63.87731665 eVH      2.54431      2.84410      0.00000        -0.000804      0.040543     -0.000000
H      0.02619      6.61079      0.00000         0.000804     -0.040543     -0.000000
C      1.23592      8.06747     -0.00000        -0.034014      0.020887      0.000000
C      1.33458      1.38742      0.00000         0.034014     -0.020887      0.000000
C     -0.01258      8.82697     -0.00000        -0.062621      0.025262      0.000000
C      0.01258      0.69811     -0.00000         0.062621     -0.025262     -0.000000
N      1.55850      2.70658     -0.00000        -0.025227      0.015228     -0.000000
N      1.01200      6.74831     -0.00000         0.025227     -0.015228     -0.000000
Ir      1.28525      4.72744      0.00000        -0.000000     -0.000000     -0.000000
