152
# total energy = -1061.25852821 eVH     10.35389      5.87395      7.64558        -0.304075      0.166585      1.105719
H     10.62451     15.10445      7.64558         0.152765     -0.075932      0.819000
H     10.62451      5.87395     13.33282        -0.184919      0.073696     -0.539214
H     10.35389     15.10445     13.33282         0.022817     -0.277135     -0.473638
H      7.64558     10.35389      5.87395         0.761404      0.062752      0.211062
H      7.64558     10.62451     15.10445         0.186470     -0.003542     -0.062605
H     13.33282     10.62451      5.87395        -0.652523     -0.056871      0.162687
H     13.33282     10.35389     15.10445        -0.332569     -0.086580     -0.055616
H      5.87395      7.64558     10.35389         0.129119      0.362696     -0.026182
H     15.10445      7.64558     10.62451        -0.127873      0.690509      0.316874
H      5.87395     13.33282     10.62451         0.133843     -0.549957     -0.010990
H     15.10445     13.33282     10.35389        -0.233460     -0.497798      0.138188
H      5.87395     10.35389      7.64558         0.228524      0.173795      0.381868
H     15.10445     10.62451      7.64558        -0.182691     -0.097731      0.379204
H      5.87395     10.62451     13.33282         0.025517      0.150253     -0.732700
H     15.10445     10.35389     13.33282         0.087976     -0.291600     -0.725407
H     10.35389      7.64558      5.87395        -0.091294      0.452057      0.274928
H     10.62451      7.64558     15.10445         0.431714      0.779506     -0.101116
H     10.62451     13.33282      5.87395         0.316466     -0.581928      0.125262
H     10.35389     13.33282     15.10445         0.146345     -0.586769     -0.096316
H      7.64558      5.87395     10.35389         0.453802      0.158150     -0.017556
H      7.64558     15.10445     10.62451         0.469639     -0.172423      0.323249
H     13.33282      5.87395     10.62451        -0.342185      0.134494     -0.015840
H     13.33282     15.10445     10.35389        -0.539393     -0.231414      0.180565
H     12.45634     12.45634     19.01126         0.243795      0.265160     -0.238023
H     19.01126     19.01126     19.01126        -0.253729     -0.264946     -0.230581
H     19.01126     12.45634     12.45634        -0.232168      0.265071      0.245533
H     12.45634     19.01126     12.45634         0.293564     -0.210570      0.242101
C     10.35284      5.61067      6.59456         0.389432     -0.345852     -1.045236
C     10.62556     15.36773      6.59456        -0.170589      0.710624     -0.482354
C     10.62556      5.61067     14.38384         0.287664     -0.337029      0.540710
C     10.35284     15.36773     14.38384        -0.129501      0.299750      0.560039
C      6.59456     10.35284      5.61067        -0.691905     -0.152442     -0.202242
C      6.59456     10.62556     15.36773        -0.550544      0.069045      0.350472
C     14.38384     10.62556      5.61067         1.029764      0.017768     -0.485258
C     14.38384     10.35284     15.36773         0.286055     -0.084978      0.371041
C      5.61067      6.59456     10.35284        -0.368197     -0.495169      0.028574
C     15.36773      6.59456     10.62556         0.234262     -0.760919     -0.211334
C      5.61067     14.38384     10.62556        -0.208359      0.628207     -0.240193
C     15.36773     14.38384     10.35284         0.369797      0.868195     -0.153838
C      5.61067     10.35284      6.59456        -0.218853     -0.141501     -0.285297
C     15.36773     10.62556      6.59456         0.213189      0.099182     -0.331372
C      5.61067     10.62556     14.38384        -0.395412     -0.027973      1.264347
C     15.36773     10.35284     14.38384         0.256818     -0.023062      1.002285
C     10.35284      6.59456      5.61067         0.000716     -0.353245     -0.469966
C     10.62556      6.59456     15.36773        -0.076917     -0.946691      0.296117
C     10.62556     14.38384      5.61067        -0.375919     -0.084536     -0.756574
C     10.35284     14.38384     15.36773        -0.236351      0.874937      0.260268
C      6.59456      5.61067     10.35284        -0.470096     -0.316959      0.142898
C      6.59456     15.36773     10.62556        -0.560194      0.532472      0.040338
C     14.38384      5.61067     10.62556         0.354871     -0.327011      0.091102
C     14.38384     15.36773     10.35284         0.824513      0.336072     -0.066549
C     10.40319      3.19606      7.29314        -0.001343      0.690994     -0.365353
C     10.35913      4.25547      6.23373         0.007121     -0.492647      0.371487
C      0.08601      7.29314      7.29314        -0.027191     -0.719941     -0.474780
C      0.13007      6.23373      6.23373        -0.136827      0.850935      0.139004
C      0.08601      3.19606      3.19606        -0.016976      0.341734      0.371163
C      0.13007      4.25547      4.25547         0.064891     -0.149432     -0.651694
C     10.40319      7.29314      3.19606        -0.048380     -1.136157      0.991652
C     10.35913      6.23373      4.25547         0.020739      0.339547     -0.180577
C      7.29314     10.40319      3.19606        -0.954671     -0.060380      0.364452
C      6.23373     10.35913      4.25547         0.272712      0.035086     -0.556985
C      7.29314      0.08601      7.29314        -0.944858      0.003676     -0.387473
C      6.23373      0.13007      6.23373         0.139961      0.008149      0.100206
C      3.19606      0.08601      3.19606         0.342552     -0.002749      0.346324
C      4.25547      0.13007      4.25547        -0.262084     -0.046739     -0.174984
C      3.19606     10.40319      7.29314         0.491235     -0.047057     -1.140027
C      4.25547     10.35913      6.23373        -0.307655     -0.042217      0.137287
C      3.19606      7.29314     10.40319         0.762120     -0.499132      0.014927
C      4.25547      6.23373     10.35913        -0.121378      0.156531      0.001798
C      7.29314      7.29314      0.08601        -0.415133     -0.270388     -0.006223
C      6.23373      6.23373      0.13007         0.290271      0.068685     -0.149413
C      3.19606      3.19606      0.08601         0.343584      0.669802     -0.010136
C      4.25547      4.25547      0.13007        -0.334255     -0.254744      0.051178
C      7.29314      3.19606     10.40319        -0.221312      0.557270      0.020425
C      6.23373      4.25547     10.35913         0.088593     -0.232165     -0.012786
O     10.43466      3.58206      8.50569        -0.017030      0.097033      0.336595
O     10.54374     17.39634      8.50569         0.068768     -0.007847      0.360393
O     10.54374      3.58206     12.47271         0.045146      0.201665     -0.567651
O     10.43466     17.39634     12.47271         0.040406      0.013871     -0.506125
O      8.50569     10.43466      3.58206         0.686737     -0.075450      0.087970
O      8.50569     10.54374     17.39634         0.913168      0.045907     -0.153789
O     12.47271     10.54374      3.58206        -0.352206      0.047690      0.056259
O     12.47271     10.43466     17.39634        -0.340282     -0.015308      0.075038
O      3.58206      8.50569     10.43466        -0.003282      0.421750     -0.081857
O     17.39634      8.50569     10.54374        -0.120775      0.422123      0.029818
O      3.58206     12.47271     10.54374         0.120850     -0.675250     -0.009099
O     17.39634     12.47271     10.43466        -0.241535     -0.657973     -0.010458
O      3.58206     10.43466      8.50569         0.130235     -0.047890      0.856218
O     17.39634     10.54374      8.50569         0.037629      0.042560      0.284337
O      3.58206     10.54374     12.47271         0.068103      0.017442     -0.431147
O     17.39634     10.43466     12.47271        -0.039183      0.015588     -0.345326
O     10.43466      8.50569      3.58206        -0.069218      0.565336     -0.128860
O     10.54374      8.50569     17.39634         0.030731      0.771686     -0.148578
O     10.54374     12.47271      3.58206         0.053800     -0.364775      0.095433
O     10.43466     12.47271     17.39634        -0.066005     -0.716739     -0.231643
O      8.50569      3.58206     10.43466         0.351869      0.066675     -0.056928
O      8.50569     17.39634     10.54374         0.518885     -0.131864      0.018449
O     12.47271      3.58206     10.54374        -0.424131      0.105293      0.016478
O     12.47271     17.39634     10.43466        -0.611595     -0.083409      0.053344
O     11.90042     11.90042     19.56718        -0.251963     -0.277049      0.217156
O     19.56718     19.56718     19.56718         0.291822      0.302239      0.253870
O     19.56718     11.90042     11.90042         0.242262     -0.297635     -0.296525
O     11.90042     19.56718     11.90042        -0.293974      0.170079     -0.249384
O      9.45224      1.03696      9.45224        -0.112426      0.118523     -0.089537
O      1.03696      9.45224      9.45224         0.138569     -0.137937     -0.151010
O      1.03696      1.03696      1.03696         0.137392      0.191835     -0.015287
O      9.45224      9.45224      1.03696        -0.189390     -0.186327      0.044863
Zr     10.48920      2.52580     10.48920         0.013166     -0.248785      0.223965
Zr     10.48920     18.45260     10.48920        -0.219394      0.258392     -0.313095
Zr     10.48920     10.48920      2.52580         0.222425      0.505547     -0.195190
Zr     10.48920     10.48920     18.45260         0.024015     -0.119450      0.486410
Zr      2.52580     10.48920     10.48920        -0.512600      0.076593      0.392435
Zr     18.45260     10.48920     10.48920         0.238829     -0.150878      0.042371
Pd      9.07210     14.48977      9.18480         0.055809     -0.097202     -0.001921
Pd      8.29065     13.23117     13.73117         0.050198      0.015458     -0.024150
Pd     11.87363     14.33146      8.87851         0.068742     -0.025912     -0.114302
Pd     12.28062     12.80569     10.93497        -0.038070     -0.107601     -0.017077
Pd     11.89048      7.12114     12.16779        -0.006090     -0.042578     -0.013263
Pd     10.94810     15.27159     11.21024         0.017189      0.026528     -0.096728
Pd      9.55073     13.05040     11.37533         0.064385     -0.040620      0.028631
Pd     13.89381     12.63617      8.36458        -0.059320     -0.068363     -0.082110
Pd     11.76125     11.68637      6.83860        -0.090516      0.032515      0.006513
Pd      7.51111      8.43040      7.35065         0.058871      0.027965     -0.031306
Pd      8.83314     11.94273      6.88134        -0.051386     -0.007554     -0.036214
Pd      9.84772      9.76927      8.06179        -0.042988     -0.043694      0.001673
Pd      8.49432     14.57629      6.52211         0.031355      0.054803     -0.020451
Pd     12.20835      8.96447      6.97626        -0.016563      0.011695      0.069429
Pd     10.15046      9.91823      5.44661        -0.022778      0.070391      0.004296
Pd      6.91417      9.16790     12.24779        -0.004506     -0.015449      0.000503
Pd     12.30355      6.43207      7.91657         0.090993      0.063399     -0.093001
Pd      5.62622     10.54231      9.97691         0.057959      0.009383      0.035113
Pd      7.67724      6.69937     12.99065        -0.052292     -0.062157     -0.021504
Ir     11.30411      9.62068     12.97678         0.018708     -0.058733     -0.048512
Ir     13.12461      9.23847     11.27564        -0.002049      0.002027     -0.167956
Ir      9.19336      8.52715     13.94092        -0.021686      0.032617     -0.073613
Ir     10.25444     10.55263     15.14649        -0.000569     -0.061096      0.042160
Ir      7.06066     11.80679     11.76125         0.019849      0.003146      0.064854
Ir     14.50791     11.12273     10.45893        -0.017395     -0.047791      0.028385
Ir     12.38396     10.54275      9.18671        -0.038919      0.082581     -0.026445
Ir      8.90630     10.82155     12.93412        -0.017808      0.005462     -0.028795
Ir     10.03427     10.24394     10.70290         0.046045     -0.034893      0.030261
Ir     13.31520     11.29335     12.69709        -0.046531      0.045602     -0.006885
Ir     11.08023     12.12069     13.33141         0.014394      0.010020      0.013098
Ir      8.02164     11.60878      9.46285        -0.029936      0.050788     -0.000706
Ir     11.34895      8.12141      9.66562         0.088788      0.074881      0.033820
Ir      6.95538     13.30943      8.16537         0.020817     -0.015650      0.086339
Ir      9.17659      7.18330      8.98581        -0.013856      0.119543     -0.008945
Ir      7.83838      9.10430      9.83005         0.006289      0.021900     -0.037574
Ir     10.45096     12.22947      9.00029         0.016713      0.115997     -0.012226
Ir      9.40728      7.85985     11.45413        -0.013517      0.020373     -0.038087
Ir     13.80511      8.35183      8.98250        -0.082986      0.011887      0.008874
