22
# total energy = -164.30022906 eVC      8.36342      1.71893      7.50000        -0.005520     -0.031190     -0.000000
C      0.71489      7.35938      7.50000         0.005520      0.031190     -0.000000
C      7.35938      8.36342      7.50000         0.031190     -0.005520     -0.000000
C      1.71893      0.71489      7.50000        -0.031190      0.005520     -0.000000
C      0.71489      1.71893      7.50000         0.005520     -0.031190      0.000000
C      8.36342      7.35938      7.50000        -0.005520      0.031190     -0.000000
C      1.71893      8.36342      7.50000        -0.031190     -0.005520     -0.000000
C      7.35938      0.71489      7.50000         0.031190      0.005520     -0.000000
O      7.85640      2.97221      7.50000        -0.007373      0.000905      0.000000
O      1.22191      6.10610      7.50000         0.007373     -0.000905     -0.000000
O      6.10610      7.85640      7.50000        -0.000905     -0.007373     -0.000000
O      2.97221      1.22191      7.50000         0.000905      0.007373      0.000000
O      1.22191      2.97221      7.50000         0.007373      0.000905      0.000000
O      7.85640      6.10610      7.50000        -0.007373     -0.000905      0.000000
O      2.97221      7.85640      7.50000         0.000905     -0.007373     -0.000000
O      6.10610      1.22191      7.50000        -0.000905      0.007373     -0.000000
Ir      0.00000      4.53916      7.50000         0.000000     -0.000000     -0.000000
Ir      4.53916      0.00000      7.50000        -0.000000     -0.000000     -0.000000
Ir      3.38974      5.68857      7.50000         0.006756     -0.006756     -0.000000
Ir      5.68857      3.38974      7.50000        -0.006756      0.006756     -0.000000
Ir      3.38974      3.38974      7.50000         0.006756      0.006756     -0.000000
Ir      5.68857      5.68857      7.50000        -0.006756     -0.006756     -0.000000
