152
# total energy = -1005.96032339 eVH     10.35389      5.87395      7.64558         0.218513      0.046619      0.618853
H     10.62451     15.10445      7.64558        -0.105609     -0.149344      0.532765
H     10.62451      5.87395     13.33282         0.493636      0.122840     -0.599105
H     10.35389     15.10445     13.33282         0.064055     -0.185211     -0.534083
H      7.64558     10.35389      5.87395         0.365354      0.030848      0.173164
H      7.64558     10.62451     15.10445         0.683856      0.468500     -0.044186
H     13.33282     10.62451      5.87395        -0.517567      0.402197      0.076939
H     13.33282     10.35389     15.10445        -0.790483     -0.083831     -0.008004
H      5.87395      7.64558     10.35389         0.271305      0.962064     -0.123192
H     15.10445      7.64558     10.62451        -0.099497      0.484086      0.279787
H      5.87395     13.33282     10.62451         0.153679     -0.695375     -0.167488
H     15.10445     13.33282     10.35389        -0.005643     -1.048850     -0.320686
H      5.87395     10.35389      7.64558         0.237491      0.057995      0.518881
H     15.10445     10.62451      7.64558        -0.117810      0.417184      0.785127
H      5.87395     10.62451     13.33282         0.146872      0.348081     -0.687450
H     15.10445     10.35389     13.33282        -0.043061     -0.063895     -0.699627
H     10.35389      7.64558      5.87395         0.331575      1.081433      0.007839
H     10.62451      7.64558     15.10445         0.526852      0.530695     -0.117181
H     10.62451     13.33282      5.87395        -0.404411     -0.829742      0.201956
H     10.35389     13.33282     15.10445        -0.040389     -0.432547     -0.220328
H      7.64558      5.87395     10.35389         0.852687      0.075350     -0.266654
H      7.64558     15.10445     10.62451         0.824828     -0.203622     -0.011528
H     13.33282      5.87395     10.62451        -0.781645      0.186940      0.592839
H     13.33282     15.10445     10.35389        -0.433982     -0.104583     -0.132355
H     12.45634     12.45634     19.01126         0.236594      0.269742     -0.239821
H     19.01126     19.01126     19.01126        -0.261180     -0.241014     -0.262117
H     19.01126     12.45634     12.45634        -0.267752      0.267404      0.220593
H     12.45634     19.01126     12.45634         0.233155     -0.258849      0.274044
C     10.35284      5.61067      6.59456        -0.410614     -0.675905      0.071831
C     10.62556     15.36773      6.59456         0.067738      0.364600     -0.309862
C     10.62556      5.61067     14.38384        -0.329662     -0.387377     -0.272115
C     10.35284     15.36773     14.38384        -0.004579      0.317349      0.530294
C      6.59456     10.35284      5.61067        -0.333108     -0.004082     -0.274901
C      6.59456     10.62556     15.36773        -0.240133     -0.216583      0.782955
C     14.38384     10.62556      5.61067        -0.217536     -0.397490     -0.528436
C     14.38384     10.35284     15.36773         0.960707     -0.069814      0.243518
C      5.61067      6.59456     10.35284        -0.544224     -0.044463     -0.146277
C     15.36773      6.59456     10.62556         0.549422      0.002348     -0.248413
C      5.61067     14.38384     10.62556        -0.308398      0.981747      0.078630
C     15.36773     14.38384     10.35284         0.279399      1.047987      0.052936
C      5.61067     10.35284      6.59456        -0.208670     -0.099077     -0.612129
C     15.36773     10.62556      6.59456         0.435826     -0.257609      0.114882
C      5.61067     10.62556     14.38384        -0.674310     -0.348280     -0.117512
C     15.36773     10.35284     14.38384         0.385745     -0.062650      1.023238
C     10.35284      6.59456      5.61067        -0.221023     -0.393982     -0.630259
C     10.62556      6.59456     15.36773        -0.266739      0.140132      0.453865
C     10.62556     14.38384      5.61067         0.206096      1.054072     -0.336811
C     10.35284     14.38384     15.36773         0.008326      0.557205      0.411769
C      6.59456      5.61067     10.35284        -0.072698     -0.871816      0.277319
C      6.59456     15.36773     10.62556        -0.999006      0.270517      0.082154
C     14.38384      5.61067     10.62556         0.473658     -0.545405     -0.375842
C     14.38384     15.36773     10.35284         0.214444      0.453580     -0.091743
C     10.40319      3.19606      7.29314         0.016287      0.666513     -0.485026
C     10.35913      4.25547      6.23373         0.089124     -0.669376      0.008664
C      0.08601      7.29314      7.29314        -0.043178     -0.407844     -0.323943
C      0.13007      6.23373      6.23373        -0.025147      0.097256      0.569655
C      0.08601      3.19606      3.19606        -0.005389      1.305228      0.286687
C      0.13007      4.25547      4.25547         0.051767     -0.778750     -0.169088
C     10.40319      7.29314      3.19606         0.011593     -0.312591      0.307896
C     10.35913      6.23373      4.25547         0.023035      0.017030     -0.793917
C      7.29314     10.40319      3.19606        -0.290481      0.021788      0.560452
C      6.23373     10.35913      4.25547         0.178413      0.059629     -0.076056
C      7.29314      0.08601      7.29314        -0.505079     -0.066240     -0.377539
C      6.23373      0.13007      6.23373         0.679950     -0.063578      0.472090
C      3.19606      0.08601      3.19606         0.797004     -0.030113      0.581371
C      4.25547      0.13007      4.25547        -0.590629     -0.087777     -0.539285
C      3.19606     10.40319      7.29314         0.472414     -0.009477     -0.739170
C      4.25547     10.35913      6.23373        -0.316916      0.070889      0.191577
C      3.19606      7.29314     10.40319         0.298586     -1.294913      0.047299
C      4.25547      6.23373     10.35913        -0.888796      0.107023      0.135778
C      7.29314      7.29314      0.08601        -0.409399     -0.379393     -0.025043
C      6.23373      6.23373      0.13007         0.454272      0.221333     -0.010791
C      3.19606      3.19606      0.08601         0.481507      0.373095     -0.042260
C      4.25547      4.25547      0.13007        -0.154658     -0.646153     -0.036676
C      7.29314      3.19606     10.40319        -0.334430      0.449314      0.073217
C      6.23373      4.25547     10.35913         0.309503     -0.678562      0.149116
O     10.43466      3.58206      8.50569        -0.016001      0.110048      0.507425
O     10.54374     17.39634      8.50569         0.034343     -0.175723      0.494976
O     10.54374      3.58206     12.47271         0.049673     -0.097819     -0.178932
O     10.43466     17.39634     12.47271        -0.039209     -0.184248     -0.527416
O      8.50569     10.43466      3.58206         0.285696     -0.010498      0.019630
O      8.50569     10.54374     17.39634         0.621191      0.036922     -0.143723
O     12.47271     10.54374      3.58206        -0.747197      0.088246      0.095564
O     12.47271     10.43466     17.39634        -0.440479      0.022258     -0.110048
O      3.58206      8.50569     10.43466         0.161455      1.046771     -0.033760
O     17.39634      8.50569     10.54374        -0.161002      0.543867      0.076274
O      3.58206     12.47271     10.54374         0.088094     -0.373879      0.050789
O     17.39634     12.47271     10.43466        -0.156113     -0.545327     -0.023181
O      3.58206     10.43466      8.50569         0.081717     -0.070419      0.583951
O     17.39634     10.54374      8.50569        -0.112057      0.067165      0.528675
O      3.58206     10.54374     12.47271         0.024591      0.042209     -0.512285
O     17.39634     10.43466     12.47271        -0.227205     -0.039337     -0.619142
O     10.43466      8.50569      3.58206        -0.038904      0.444014      0.138904
O     10.54374      8.50569     17.39634         0.051238      0.534544     -0.157911
O     10.54374     12.47271      3.58206         0.013800     -1.035977      0.190649
O     10.43466     12.47271     17.39634         0.038189     -0.710414     -0.173083
O      8.50569      3.58206     10.43466         0.519033      0.147860     -0.055941
O      8.50569     17.39634     10.54374         0.486098     -0.194701      0.014645
O     12.47271      3.58206     10.54374        -0.624603      0.223829      0.009015
O     12.47271     17.39634     10.43466        -0.231238      0.064066     -0.050259
O     11.90042     11.90042     19.56718        -0.241058     -0.288934      0.249004
O     19.56718     19.56718     19.56718         0.310146      0.295481      0.302896
O     19.56718     11.90042     11.90042         0.295365     -0.263949     -0.233277
O     11.90042     19.56718     11.90042        -0.240546      0.292738     -0.323063
O      9.45224      1.03696      9.45224        -0.017875      0.089805     -0.072364
O      1.03696      9.45224      9.45224         0.092612     -0.090946     -0.131743
O      1.03696      1.03696      1.03696         0.094311      0.187940      0.052293
O      9.45224      9.45224      1.03696        -0.106711     -0.106605      0.036332
Zr     10.48920      2.52580     10.48920        -0.128738     -0.285553     -0.035674
Zr     10.48920     18.45260     10.48920        -0.070860      0.214235      0.067676
Zr     10.48920     10.48920      2.52580        -0.013768     -0.401992     -0.266910
Zr     10.48920     10.48920     18.45260        -0.274744     -0.097578      0.317663
Zr      2.52580     10.48920     10.48920        -0.384608      0.236065      0.261193
Zr     18.45260     10.48920     10.48920         0.234603      0.000314     -0.218849
Pd     13.58074      8.92870      9.26155         0.008056      0.010898     -0.008623
Pd      5.63885      9.87238     10.16898        -0.003332      0.008552     -0.011859
Pd      6.79131     11.85575     11.68269        -0.005246      0.002211      0.006251
Pd     12.10228     13.02500      7.34543        -0.007662      0.000087      0.008192
Pd     11.90234      7.74777      7.43559        -0.001837      0.001021      0.005956
Pd      8.30467      6.92122      6.59558         0.002425     -0.013565     -0.003528
Pd     10.71299     11.18361      5.62808        -0.005902      0.000160      0.002047
Pd     14.42122      8.55265      6.77399        -0.000809     -0.001394     -0.005756
Pd      9.69333     11.74910      8.08328        -0.005397     -0.004209      0.006154
Pd      6.77151      6.80848     12.30997         0.006323     -0.004499      0.000555
Pd      6.47832      7.88365      8.19751         0.007883      0.029112     -0.028556
Pd      6.53219      8.50212     14.34321         0.005909      0.002427     -0.003618
Pd     11.50460      6.51705      9.87661        -0.004033     -0.001097      0.009825
Pd      9.56372      9.22994      7.12302        -0.009066     -0.004809      0.000192
Pd      8.99489     13.99873      9.29659        -0.003355     -0.005904      0.010112
Pd      9.51392      7.36467     11.73208        -0.010881      0.001105     -0.001942
Pd     10.59164      8.99089      9.67802         0.003626     -0.003239     -0.000174
Pd      9.33216     11.52701     10.66264        -0.000205     -0.003672      0.008974
Pd      8.91459      7.03797      9.15932        -0.004122      0.000072     -0.002764
Pd      8.55262      6.57028     14.23856         0.003182      0.010958      0.007053
Pd      7.67885      9.33125     11.95123        -0.004336      0.003682      0.004221
Pd     11.99735     10.39420      7.74982        -0.006672      0.000176     -0.000997
Pd      7.14219     12.02391      9.03168        -0.002460     -0.003480      0.006680
Pd      8.09661      9.59324      9.30820         0.005359     -0.000374      0.011707
Pd     14.02845      6.46917      8.50281        -0.001117      0.005159      0.004477
Pd     12.54119      8.34210     11.60359         0.014043      0.006807     -0.008275
Pd      8.76739     11.58593     13.39209        -0.000816     -0.002924      0.002191
Pd     13.90818     11.95279      8.96312        -0.004277     -0.002932      0.003320
Pd     12.95064     10.66777     13.04811         0.000027      0.002691      0.002962
Pd     14.79569     10.43806     11.08944        -0.000563      0.000920      0.003434
Pd     12.09195     10.87969     10.51751        -0.004524      0.001324      0.003743
Pd     11.44831     13.32642      9.90563        -0.002564      0.001647      0.007825
Pd     13.60423     12.91138     11.62631        -0.001484      0.000278      0.002722
Pd     11.12460     12.59558     12.51456        -0.003346      0.002155      0.001791
Pd     10.95370     11.05110     14.80317         0.003260      0.015210      0.002303
Pd     10.49499      9.77099     12.36599         0.005344     -0.010246      0.006516
Pd      9.07948      9.13727     14.39813         0.007701      0.009138      0.014451
Pd      8.84106     13.84452     11.98369        -0.009805     -0.002370      0.009365
