9
# total energy = -71.25662588 eVC      2.67630      0.76103      7.50000        -0.000000      0.187877      0.000000
C      2.67630      4.59157      7.50000         0.000000     -0.187877      0.000000
C      4.59157      2.67630      7.50000        -0.187877      0.000000     -0.000000
C      0.76103      2.67630      7.50000         0.187877     -0.000000     -0.000000
C      3.95434      3.95434      7.50000         0.125908      0.125908     -0.000000
C      1.39826      1.39826      7.50000        -0.125908     -0.125908      0.000000
C      1.39826      3.95434      7.50000        -0.125908      0.125908     -0.000000
C      3.95434      1.39826      7.50000         0.125908     -0.125908      0.000000
Pd      0.00000      0.00000      7.50000         0.000000      0.000000     -0.000000
