152
# total energy = -1092.90493245 eVH     10.35389      5.87395      7.64558         0.268121     -0.087439      1.322765
H     10.62451     15.10445      7.64558        -0.294128      0.136383      1.543166
H     10.62451      5.87395     13.33282         0.239407     -0.081374     -1.303606
H     10.35389     15.10445     13.33282        -0.199890     -0.031976     -1.202938
H      7.64558     10.35389      5.87395         0.421564      0.010133     -0.036929
H      7.64558     10.62451     15.10445         0.418479      0.002275      0.003082
H     13.33282     10.62451      5.87395        -0.635548     -0.031605      0.014224
H     13.33282     10.35389     15.10445        -0.437232      0.034254      0.002374
H      5.87395      7.64558     10.35389        -0.135042      1.440941      0.277751
H     15.10445      7.64558     10.62451        -0.008792      0.583746      0.045878
H      5.87395     13.33282     10.62451        -0.051984     -0.292487      0.021065
H     15.10445     13.33282     10.35389         0.224512     -1.637595      0.102082
H      5.87395     10.35389      7.64558        -0.135903     -0.528643      0.388201
H     15.10445     10.62451      7.64558         0.522039      0.772086     -0.109638
H      5.87395     10.62451     13.33282        -0.091391     -0.191798     -0.229438
H     15.10445     10.35389     13.33282        -0.062185      0.120785     -0.026280
H     10.35389      7.64558      5.87395        -0.301443      0.319491      0.064063
H     10.62451      7.64558     15.10445         0.110926      0.631060      0.188009
H     10.62451     13.33282      5.87395        -0.104259     -0.645259     -0.081110
H     10.35389     13.33282     15.10445        -0.119294     -0.415233      0.317456
H      7.64558      5.87395     10.35389         0.387951     -0.028545     -0.071115
H      7.64558     15.10445     10.62451         0.302378      0.022774     -0.064134
H     13.33282      5.87395     10.62451        -0.271685     -0.072533     -0.035609
H     13.33282     15.10445     10.35389        -0.497573      0.150026     -0.065842
H     12.45634     12.45634     19.01126         0.264355      0.246486     -0.243285
H     19.01126     19.01126     19.01126        -0.261830     -0.243862     -0.251134
H     19.01126     12.45634     12.45634        -0.259628      0.266968      0.232988
H     12.45634     19.01126     12.45634         0.272878     -0.255696      0.226987
C     10.35284      5.61067      6.59456        -0.269785     -0.204123     -1.659298
C     10.62556     15.36773      6.59456         0.440596      0.100066     -1.843731
C     10.62556      5.61067     14.38384        -0.344339     -0.084832      1.616383
C     10.35284     15.36773     14.38384         0.382889      0.088319      1.687098
C      6.59456     10.35284      5.61067        -0.744340     -0.077182     -0.317639
C      6.59456     10.62556     15.36773        -0.843413     -0.029487      0.076567
C     14.38384     10.62556      5.61067         0.991848      0.024501     -0.205731
C     14.38384     10.35284     15.36773         0.788216      0.008395      0.173679
C      5.61067      6.59456     10.35284        -0.107084     -1.533901     -0.115311
C     15.36773      6.59456     10.62556         0.199975     -0.998837      0.028502
C      5.61067     14.38384     10.62556        -0.311028      0.730132      0.028280
C     15.36773     14.38384     10.35284         0.041270      1.711028     -0.049415
C      5.61067     10.35284      6.59456        -0.734495      0.154865     -1.798044
C     15.36773     10.62556      6.59456         0.769257     -0.169426     -2.048731
C      5.61067     10.62556     14.38384        -0.658388      0.095442      1.758427
C     15.36773     10.35284     14.38384         0.611328     -0.073679      1.460692
C     10.35284      6.59456      5.61067         0.094005     -1.472409     -0.793454
C     10.62556      6.59456     15.36773        -0.038933     -1.735485      0.821894
C     10.62556     14.38384      5.61067         0.057981      1.618220     -0.887812
C     10.35284     14.38384     15.36773        -0.017062      1.884366      0.772000
C      6.59456      5.61067     10.35284        -0.577693     -0.906016     -0.047240
C      6.59456     15.36773     10.62556        -1.140043      0.626900      0.075058
C     14.38384      5.61067     10.62556         1.157339     -0.790595      0.101814
C     14.38384     15.36773     10.35284         0.782774      1.002022      0.031769
C     10.40319      3.19606      7.29314         0.012169      0.530328     -0.499859
C     10.35913      4.25547      6.23373        -0.013777     -0.837792      0.467806
C      0.08601      7.29314      7.29314         0.020200     -0.522723     -0.562220
C      0.13007      6.23373      6.23373         0.016966      0.910126      0.480859
C      0.08601      3.19606      3.19606         0.011571      0.660232      0.393782
C      0.13007      4.25547      4.25547        -0.034207     -0.765851     -0.458960
C     10.40319      7.29314      3.19606         0.013876     -0.668778      0.502390
C     10.35913      6.23373      4.25547         0.060465      0.624337     -0.454373
C      7.29314     10.40319      3.19606        -0.318406     -0.007495      0.602174
C      6.23373     10.35913      4.25547         0.172581     -0.073002     -0.204023
C      7.29314      0.08601      7.29314        -0.237775     -0.025826     -0.408522
C      6.23373      0.13007      6.23373         0.136063     -0.088938      0.398718
C      3.19606      0.08601      3.19606         0.385882      0.010236      0.436815
C      4.25547      0.13007      4.25547        -0.192769      0.064430     -0.261894
C      3.19606     10.40319      7.29314         0.286564      0.017236     -0.481185
C      4.25547     10.35913      6.23373        -0.158418      0.093956      0.435984
C      3.19606      7.29314     10.40319         0.203821     -0.350944     -0.011127
C      4.25547      6.23373     10.35913        -0.623814      0.226791      0.069698
C      7.29314      7.29314      0.08601        -0.597554     -0.395149      0.004739
C      6.23373      6.23373      0.13007         0.104670      0.249498     -0.061940
C      3.19606      3.19606      0.08601         0.544230      0.376338     -0.003435
C      4.25547      4.25547      0.13007        -0.062178     -0.114084     -0.020400
C      7.29314      3.19606     10.40319        -0.227889      0.420064     -0.009206
C      6.23373      4.25547     10.35913         0.699389     -0.264795      0.045053
O     10.43466      3.58206      8.50569         0.007843      0.222383      0.459042
O     10.54374     17.39634      8.50569        -0.027381     -0.218988      0.486840
O     10.54374      3.58206     12.47271         0.071962      0.152337     -0.348990
O     10.43466     17.39634     12.47271        -0.121459     -0.170996     -0.381126
O      8.50569     10.43466      3.58206         0.395945     -0.022898      0.063576
O      8.50569     10.54374     17.39634         0.443838      0.054936     -0.118206
O     12.47271     10.54374      3.58206        -0.497294     -0.005784      0.120103
O     12.47271     10.43466     17.39634        -0.458295     -0.054629     -0.125884
O      3.58206      8.50569     10.43466         0.172331      0.438978     -0.046903
O     17.39634      8.50569     10.54374        -0.069016      0.511998      0.038553
O      3.58206     12.47271     10.54374         0.053647     -0.497057      0.042522
O     17.39634     12.47271     10.43466        -0.189679     -0.488012     -0.013319
O      3.58206     10.43466      8.50569         0.167991     -0.017776      0.478689
O     17.39634     10.54374      8.50569        -0.124242     -0.007050      0.455119
O      3.58206     10.54374     12.47271         0.184723      0.076439     -0.444748
O     17.39634     10.43466     12.47271        -0.205780     -0.055194     -0.576852
O     10.43466      8.50569      3.58206         0.051195      0.588653      0.258693
O     10.54374      8.50569     17.39634         0.058238      0.550410     -0.232931
O     10.54374     12.47271      3.58206        -0.005538     -0.664125      0.274255
O     10.43466     12.47271     17.39634        -0.039961     -0.533647     -0.239985
O      8.50569      3.58206     10.43466         0.521656      0.146368     -0.030203
O      8.50569     17.39634     10.54374         0.626956     -0.116811      0.055973
O     12.47271      3.58206     10.54374        -0.621715      0.128584      0.016126
O     12.47271     17.39634     10.43466        -0.505706     -0.141069     -0.010620
O     11.90042     11.90042     19.56718        -0.310634     -0.288598      0.266453
O     19.56718     19.56718     19.56718         0.309715      0.273544      0.286767
O     19.56718     11.90042     11.90042         0.310043     -0.319906     -0.238658
O     11.90042     19.56718     11.90042        -0.331028      0.281748     -0.226724
O      9.45224      1.03696      9.45224        -0.044702      0.048315     -0.070855
O      1.03696      9.45224      9.45224         0.028482     -0.079652     -0.062365
O      1.03696      1.03696      1.03696         0.030378      0.042878      0.130048
O      9.45224      9.45224      1.03696        -0.036655     -0.083985      0.130103
Zr     10.48920      2.52580     10.48920        -0.101696     -0.103981      0.009075
Zr     10.48920     18.45260     10.48920         0.138099      0.187887     -0.117739
Zr     10.48920     10.48920      2.52580         0.008983      0.099264     -0.317255
Zr     10.48920     10.48920     18.45260        -0.021512     -0.010533      0.163144
Zr      2.52580     10.48920     10.48920        -0.031767     -0.017377     -0.058016
Zr     18.45260     10.48920     10.48920         0.123267      0.097874     -0.153061
Pd     13.06879      8.14614      7.70637         0.011484     -0.076023      0.000545
Pd      9.46673     14.61279     11.75073         0.061593     -0.130853     -0.025229
Pd     12.35609     11.00014     10.45721        -0.157965      0.022340     -0.043549
Pd     14.70192     10.25371     11.58380         0.057459     -0.089060      0.103363
Pd     11.06137      9.25574      6.22230        -0.054819     -0.023841     -0.012517
Pd      6.80494      8.35638      8.88489         0.398888      0.180651      0.056491
Ir     10.25028     11.89154     11.78903        -0.111711      0.091008     -0.097160
Ir     13.01956      8.40542     10.37526        -0.195127     -0.178747      0.125280
Ir     12.27784     11.04002      7.74229         0.233057      0.022216      0.126739
Ir      9.59649     14.35327      9.14059         0.046126     -0.081508     -0.038163
Ir     10.88369      9.26256     11.77688        -0.031863     -0.053940     -0.106349
Ir      8.69935      9.96231      7.83634        -0.022821     -0.068927     -0.079812
Ir     13.85980     12.60304      9.00627        -0.180571     -0.033107      0.152125
Ir     11.92895     13.61299      7.81553        -0.082780      0.065008     -0.044433
Ir     14.34091     10.03225      9.06481        -0.009281      0.083855     -0.077359
Ir      9.36980      7.40701     10.49556         0.007987     -0.026964     -0.243126
Ir      8.11346     12.60303      7.84325         0.010985      0.124132     -0.068498
Ir      9.17674      7.52163      7.96923         0.095892      0.065984     -0.047941
Ir     11.80614     13.64320     13.03225        -0.104150     -0.027960     -0.004406
Ir     11.58426      6.77784     11.78802        -0.001056      0.127522      0.093412
Ir     10.20831     11.79604      9.10361         0.066648      0.026790      0.061492
Ir     13.00254      8.46125     13.05374        -0.050354     -0.031617     -0.017331
Ir     10.88610      9.17219      9.03093        -0.074025     -0.219863      0.061315
Ir     11.72803     13.63942     10.39827        -0.089833      0.016914      0.035940
Ir     13.78507     12.81651     11.82873         0.061623     -0.069803     -0.077794
Ir     12.38464     11.12251     13.13344         0.051242     -0.123748     -0.013175
Ir     10.10462     11.62382      6.50279        -0.058144      0.134186      0.057979
Ir     11.45521      6.62209      9.26248        -0.005199      0.071628     -0.040881
Ir      7.30144      8.26785     11.77763        -0.138593      0.027056      0.211094
Ir      8.15021     12.67182     10.44482         0.081898      0.106128      0.020807
Ir     10.93533      9.34964     14.34464         0.185089     -0.232117     -0.154749
Ir      8.05687     12.51958     13.00700         0.019101     -0.090198     -0.060425
Ir      6.60294     11.05707      9.18423        -0.119357      0.036383     -0.225130
Ir      8.69020     10.00163     13.10433        -0.065686      0.095214     -0.070200
Ir      6.61326     10.80875     11.60006        -0.147541      0.097629      0.233742
Ir      9.25977      7.45614     13.10088        -0.172483     -0.030482      0.030705
Ir     10.14757     11.69723     14.37298         0.021382     -0.011207     -0.015665
Ir      8.74390      9.99477     10.45061         0.204336     -0.029055     -0.023445
