152
# total energy = -1060.52590019 eVH     10.35389      5.87395      7.64558        -0.211611      0.145115      0.991250
H     10.62451     15.10445      7.64558         0.288311     -0.097141      0.796765
H     10.62451      5.87395     13.33282        -0.289229      0.085624     -0.702348
H     10.35389     15.10445     13.33282         0.150581     -0.285609     -0.738073
H      7.64558     10.35389      5.87395         0.836362     -0.196336      0.218581
H      7.64558     10.62451     15.10445         0.246944      0.037896     -0.059037
H     13.33282     10.62451      5.87395        -0.741426      0.036866      0.149434
H     13.33282     10.35389     15.10445        -0.311275     -0.094983     -0.032878
H      5.87395      7.64558     10.35389         0.103150      0.411695      0.005669
H     15.10445      7.64558     10.62451        -0.102080      0.699320      0.250633
H      5.87395     13.33282     10.62451         0.004926     -0.876599      0.102275
H     15.10445     13.33282     10.35389        -0.208717     -0.393585      0.033893
H      5.87395     10.35389      7.64558         0.281545      0.056484      0.359757
H     15.10445     10.62451      7.64558        -0.142210     -0.138416      0.556285
H      5.87395     10.62451     13.33282        -0.031840      0.389881     -0.700330
H     15.10445     10.35389     13.33282         0.171412     -0.436410     -0.900169
H     10.35389      7.64558      5.87395         0.004976      0.502864      0.350535
H     10.62451      7.64558     15.10445         0.228847      0.647595     -0.107645
H     10.62451     13.33282      5.87395         0.029731     -0.564477      0.207099
H     10.35389     13.33282     15.10445         0.066014     -0.358072     -0.122600
H      7.64558      5.87395     10.35389         0.432213      0.139521      0.056962
H      7.64558     15.10445     10.62451         0.390260     -0.130502      0.215397
H     13.33282      5.87395     10.62451        -0.308462      0.119573     -0.011131
H     13.33282     15.10445     10.35389        -0.633514     -0.195486      0.211338
H     12.45634     12.45634     19.01126         0.259821      0.267306     -0.223856
H     19.01126     19.01126     19.01126        -0.249050     -0.269947     -0.236090
H     19.01126     12.45634     12.45634        -0.241410      0.267442      0.243193
H     12.45634     19.01126     12.45634         0.295134     -0.223498      0.237123
C     10.35284      5.61067      6.59456         0.389168     -0.313451     -1.173612
C     10.62556     15.36773      6.59456        -0.271795      0.647578     -0.576369
C     10.62556      5.61067     14.38384         0.334413     -0.277897      0.743238
C     10.35284     15.36773     14.38384        -0.198487      0.333865      0.904860
C      6.59456     10.35284      5.61067        -1.153906     -0.005487     -0.208133
C      6.59456     10.62556     15.36773        -0.660281      0.062450      0.365602
C     14.38384     10.62556      5.61067         1.324496     -0.102884     -0.610003
C     14.38384     10.35284     15.36773         0.317519     -0.124744      0.410258
C      5.61067      6.59456     10.35284        -0.281858     -0.598205     -0.007255
C     15.36773      6.59456     10.62556         0.341631     -0.940543     -0.202014
C      5.61067     14.38384     10.62556        -0.204329      1.002440     -0.290796
C     15.36773     14.38384     10.35284         0.444230      0.820895     -0.091040
C      5.61067     10.35284      6.59456        -0.276722     -0.111270     -0.539206
C     15.36773     10.62556      6.59456         0.264329      0.125302     -0.485606
C      5.61067     10.62556     14.38384        -0.298623     -0.147505      1.215500
C     15.36773     10.35284     14.38384         0.171881      0.141282      1.223958
C     10.35284      6.59456      5.61067        -0.032571     -0.646873     -0.416578
C     10.62556      6.59456     15.36773        -0.032339     -0.779187      0.370119
C     10.62556     14.38384      5.61067        -0.460035      0.418926     -0.770918
C     10.35284     14.38384     15.36773        -0.166986      0.659326      0.473574
C      6.59456      5.61067     10.35284        -0.566998     -0.326869      0.045671
C      6.59456     15.36773     10.62556        -0.265572      0.503078      0.087559
C     14.38384      5.61067     10.62556         0.371451     -0.350511      0.072491
C     14.38384     15.36773     10.35284         1.047694      0.352997     -0.104947
C     10.40319      3.19606      7.29314        -0.011345      0.879567     -0.367293
C     10.35913      4.25547      6.23373         0.047378     -0.390367      0.289283
C      0.08601      7.29314      7.29314        -0.012731     -0.529812     -0.498055
C      0.13007      6.23373      6.23373        -0.080377      0.794994      0.053517
C      0.08601      3.19606      3.19606        -0.010417      0.609548      0.270722
C      0.13007      4.25547      4.25547         0.072242     -0.234456     -0.608465
C     10.40319      7.29314      3.19606        -0.042702     -1.079354      0.805923
C     10.35913      6.23373      4.25547        -0.031853      0.356047     -0.224737
C      7.29314     10.40319      3.19606        -0.975381     -0.053332      0.298697
C      6.23373     10.35913      4.25547         0.374160      0.106769     -0.517988
C      7.29314      0.08601      7.29314        -0.780409      0.018980     -0.377858
C      6.23373      0.13007      6.23373         0.172568      0.080451      0.122734
C      3.19606      0.08601      3.19606         0.592202      0.006737      0.185200
C      4.25547      0.13007      4.25547        -0.207882     -0.087404     -0.256715
C      3.19606     10.40319      7.29314         0.495276     -0.035820     -0.972972
C      4.25547     10.35913      6.23373        -0.146069     -0.010956      0.163182
C      3.19606      7.29314     10.40319         0.687982     -0.426166      0.008437
C      4.25547      6.23373     10.35913        -0.113041      0.168578      0.000256
C      7.29314      7.29314      0.08601        -0.395112     -0.304504     -0.023979
C      6.23373      6.23373      0.13007         0.238819      0.129482     -0.151542
C      3.19606      3.19606      0.08601         0.324903      0.550534     -0.022058
C      4.25547      4.25547      0.13007        -0.437889     -0.292484     -0.003249
C      7.29314      3.19606     10.40319        -0.277308      0.621969      0.003435
C      6.23373      4.25547     10.35913         0.020850     -0.173749      0.019404
O     10.43466      3.58206      8.50569        -0.036562      0.045894      0.248914
O     10.54374     17.39634      8.50569         0.062866     -0.065751      0.494363
O     10.54374      3.58206     12.47271         0.032942      0.122277     -0.443271
O     10.43466     17.39634     12.47271         0.075672     -0.044701     -0.498579
O      8.50569     10.43466      3.58206         0.667500     -0.081618      0.055794
O      8.50569     10.54374     17.39634         0.777078      0.082832     -0.120322
O     12.47271     10.54374      3.58206        -0.577956      0.115233      0.197746
O     12.47271     10.43466     17.39634        -0.350188     -0.001922      0.039954
O      3.58206      8.50569     10.43466         0.017439      0.445637     -0.077509
O     17.39634      8.50569     10.54374        -0.095810      0.443458      0.042460
O      3.58206     12.47271     10.54374         0.131664     -0.611242     -0.004620
O     17.39634     12.47271     10.43466        -0.234971     -0.733768     -0.008485
O      3.58206     10.43466      8.50569         0.174182     -0.043523      0.806595
O     17.39634     10.54374      8.50569         0.002260      0.034836      0.319928
O      3.58206     10.54374     12.47271         0.007302      0.005224     -0.302081
O     17.39634     10.43466     12.47271        -0.030059      0.002738     -0.341366
O     10.43466      8.50569      3.58206        -0.100853      0.552146     -0.075965
O     10.54374      8.50569     17.39634         0.051824      0.607530     -0.080751
O     10.54374     12.47271      3.58206         0.097537     -0.561671      0.109333
O     10.43466     12.47271     17.39634        -0.053652     -0.823775     -0.299277
O      8.50569      3.58206     10.43466         0.372324      0.024640     -0.063499
O      8.50569     17.39634     10.54374         0.573344     -0.136657      0.054578
O     12.47271      3.58206     10.54374        -0.502360      0.123798      0.027377
O     12.47271     17.39634     10.43466        -0.617626     -0.093439      0.049934
O     11.90042     11.90042     19.56718        -0.271893     -0.279134      0.222982
O     19.56718     19.56718     19.56718         0.294810      0.313637      0.287008
O     19.56718     11.90042     11.90042         0.270806     -0.311318     -0.255254
O     11.90042     19.56718     11.90042        -0.314294      0.208813     -0.208405
O      9.45224      1.03696      9.45224        -0.121262      0.144284     -0.044476
O      1.03696      9.45224      9.45224         0.148637     -0.143607     -0.051949
O      1.03696      1.03696      1.03696         0.080818      0.091130      0.075832
O      9.45224      9.45224      1.03696        -0.094058     -0.132104      0.133484
Zr     10.48920      2.52580     10.48920         0.041515     -0.172685      0.172410
Zr     10.48920     18.45260     10.48920        -0.181500      0.231946     -0.387142
Zr     10.48920     10.48920      2.52580         0.132709      0.383925     -0.251786
Zr     10.48920     10.48920     18.45260        -0.006182     -0.256293      0.307920
Zr      2.52580     10.48920     10.48920        -0.318917      0.091391      0.263724
Zr     18.45260     10.48920     10.48920         0.194228     -0.149641     -0.029784
Pd      9.30860     14.39933      9.17525        -0.014842     -0.023984      0.010881
Pd      8.55867     13.70343     13.10984        -0.041846     -0.080279      0.117982
Pd     12.01410     14.36996      8.86250        -0.003335      0.022805     -0.050263
Pd     12.52169     12.80961     10.86769        -0.003090      0.019991     -0.032781
Pd     12.09172      7.13168     12.51645        -0.032978     -0.017962      0.005277
Pd     11.02173     15.10929     11.32252        -0.005185      0.000129      0.020547
Pd      9.88409     12.74583     11.02709        -0.068585      0.063414     -0.017796
Pd     13.57712     12.29464      8.06653        -0.028192      0.018330      0.072345
Pd     11.56356     11.67710      6.18037         0.043721     -0.006773      0.080882
Pd      7.84463      8.17322      7.47752        -0.010809      0.031022      0.018457
Pd      8.73189     11.80408      6.84012        -0.025033      0.020982      0.028007
Pd     10.03165      9.57345      8.22256         0.047020      0.008976     -0.038347
Pd      8.46968     14.50479      6.65820         0.037520     -0.007407     -0.004424
Pd     12.30467      9.26476      7.02262        -0.012701     -0.111668     -0.053591
Pd      9.86201      9.65913      5.59297         0.057473      0.019956     -0.045921
Pd      6.93073      9.41126     12.23872        -0.034888     -0.026895     -0.010929
Pd     12.28606      6.72010      7.89381        -0.005993     -0.015007     -0.005797
Pd      5.84968     10.46882      9.84664        -0.001911      0.024462     -0.009998
Pd      7.53842      7.00263     13.23304        -0.000623      0.000607      0.012949
Ir     11.49117      9.66449     13.11355         0.032679      0.024940     -0.017596
Ir     13.36115      9.19437     11.50441         0.009114     -0.006476     -0.082888
Ir      9.19552      8.81091     14.00810         0.013036     -0.021042     -0.025686
Ir     10.36590     10.75644     15.16142        -0.005408     -0.032897     -0.033120
Ir      7.25563     11.99092     11.46746        -0.037362     -0.010789      0.037417
Ir     14.58351     11.09342     10.43392         0.019518     -0.022157     -0.062221
Ir     12.29265     10.51386      9.48905        -0.008413     -0.028952      0.045146
Ir      8.91104     11.07273     12.98656         0.048675     -0.020122      0.008915
Ir     10.08290     10.00601     10.97259         0.008422      0.034551     -0.055094
Ir     13.47870     11.39867     12.74112        -0.018189     -0.036407     -0.004668
Ir     11.21940     12.20280     13.20474        -0.099527     -0.005739      0.017404
Ir      8.35115     11.27256      9.34104        -0.013980      0.018914     -0.009331
Ir     11.53222      8.02374     10.01473        -0.016748      0.028319      0.016141
Ir      7.12297     13.17044      8.54447         0.019677      0.010674     -0.041944
Ir      9.45242      6.97932      9.23502         0.034438      0.050803     -0.008009
Ir      7.99070      8.85350      9.98845        -0.056944      0.022760      0.016749
Ir     10.71766     12.13123      8.56368        -0.055477      0.044044      0.040647
Ir      9.51285      7.69621     11.72651         0.001085      0.027874     -0.042394
Ir     13.85861      8.54260      9.07597        -0.029210     -0.041600     -0.047031
