9
# total energy = -60.69081730 eVC      0.00000      1.38029      7.50000        -0.000000     -0.160487     -0.000000
C      4.67118      2.69691      7.50000         0.138986      0.080243      0.000000
C      1.19537     -0.69015      7.50000        -0.138986      0.080243      0.000000
C      0.00000      5.39382      7.50000        -0.000000      0.160487      0.000000
C      1.19537      0.69015      7.50000        -0.138986     -0.080243     -0.000000
C      4.67118     -2.69691      7.50000         0.138986     -0.080243      0.000000
Pd      2.93328     -1.69353      7.50000        -0.000000     -0.000000      0.000000
Pd      0.00000      3.38706      7.50000        -0.000000     -0.000000      0.000000
Pd      2.93328      1.69353      7.50000        -0.000000     -0.000000      0.000000
