152
# total energy = -1110.39214671 eVH     10.35389      5.87395      7.64558        -0.385348     -0.130724      1.143691
H     10.62451     15.10445      7.64558         0.329667      0.078042      0.921176
H     10.62451      5.87395     13.33282        -0.319217     -0.677399     -1.341660
H     10.35389     15.10445     13.33282        -0.587921      0.428004     -0.332342
H      7.64558     10.35389      5.87395         0.557435     -0.521931     -0.100411
H      7.64558     10.62451     15.10445         0.384977     -0.234488      0.043785
H     13.33282     10.62451      5.87395        -0.578149      0.646268     -0.047382
H     13.33282     10.35389     15.10445        -0.525658      0.389016      0.154703
H      5.87395      7.64558     10.35389         0.149334      0.555200      0.028391
H     15.10445      7.64558     10.62451         0.428968      1.019375      0.282500
H      5.87395     13.33282     10.62451        -0.221186     -0.502401      0.362165
H     15.10445     13.33282     10.35389         0.027817     -0.299406     -0.379733
H      5.87395     10.35389      7.64558        -0.102417     -0.409472      1.485443
H     15.10445     10.62451      7.64558         0.219050      0.512290      1.325562
H      5.87395     10.62451     13.33282        -0.216571     -0.369634     -1.204258
H     15.10445     10.35389     13.33282         0.611582      0.998366     -1.533304
H     10.35389      7.64558      5.87395        -0.582586      0.528766     -0.173518
H     10.62451      7.64558     15.10445        -0.134489      0.453297      0.159229
H     10.62451     13.33282      5.87395         0.870486     -1.331701     -0.313332
H     10.35389     13.33282     15.10445         0.227030     -0.562457     -0.105086
H      7.64558      5.87395     10.35389         0.719666      0.164478     -0.172279
H      7.64558     15.10445     10.62451         1.980180      0.751155      0.222403
H     13.33282      5.87395     10.62451        -2.658319     -0.909304     -0.511249
H     13.33282     15.10445     10.35389        -0.877894     -0.055930     -0.252413
H     12.45634     12.45634     19.01126         0.271957      0.257979     -0.227234
H     19.01126     19.01126     19.01126        -0.266800     -0.254718     -0.238581
H     19.01126     12.45634     12.45634        -0.284029      0.281778      0.185098
H     12.45634     19.01126     12.45634         0.256413     -0.250581      0.235893
C     10.35284      5.61067      6.59456         0.076462     -0.485802     -1.205627
C     10.62556     15.36773      6.59456         0.190612      0.754424     -0.811756
C     10.62556      5.61067     14.38384         0.181451     -0.296569      1.786301
C     10.35284     15.36773     14.38384         0.086241      0.384186      1.794339
C      6.59456     10.35284      5.61067        -1.138141     -0.110250     -0.894098
C      6.59456     10.62556     15.36773        -0.701878     -0.095282      0.793534
C     14.38384     10.62556      5.61067         0.840177     -0.111005     -0.991432
C     14.38384     10.35284     15.36773         1.179593      0.168466      1.099490
C      5.61067      6.59456     10.35284        -0.668457     -0.898979     -0.187890
C     15.36773      6.59456     10.62556         2.006668     -0.318421     -0.187506
C      5.61067     14.38384     10.62556        -1.568423     -0.012457     -0.141381
C     15.36773     14.38384     10.35284         0.484876      0.089160      0.001096
C      5.61067     10.35284      6.59456        -0.275083      0.211662     -1.352991
C     15.36773     10.62556      6.59456         0.294695     -0.263749     -0.981870
C      5.61067     10.62556     14.38384        -0.255674      0.445965      1.458168
C     15.36773     10.35284     14.38384         0.007713     -0.484712      1.944716
C     10.35284      6.59456      5.61067        -0.161028     -0.850206     -0.697215
C     10.62556      6.59456     15.36773        -0.117939     -0.717862      1.046115
C     10.62556     14.38384      5.61067        -0.501899      1.989295     -0.755341
C     10.35284     14.38384     15.36773        -0.260726      1.362521      0.501631
C      6.59456      5.61067     10.35284        -0.987307     -0.410055      0.093840
C      6.59456     15.36773     10.62556        -1.258780      0.370055     -0.332944
C     14.38384      5.61067     10.62556         1.272679     -1.299978      0.213754
C     14.38384     15.36773     10.35284         0.457771      0.311181      0.085508
C     10.40319      3.19606      7.29314         0.001153      0.305162     -0.110600
C     10.35913      4.25547      6.23373         0.141996     -0.573362      0.016307
C      0.08601      7.29314      7.29314        -0.053402     -0.280851     -0.420164
C      0.13007      6.23373      6.23373        -0.123290      0.672076      0.018096
C      0.08601      3.19606      3.19606        -0.105801      1.661479      0.166230
C      0.13007      4.25547      4.25547        -0.096164     -0.392712     -1.208690
C     10.40319      7.29314      3.19606         0.015769     -0.448337      0.121986
C     10.35913      6.23373      4.25547         0.263801      0.086424     -0.533667
C      7.29314     10.40319      3.19606        -1.695365      0.010884      0.324697
C      6.23373     10.35913      4.25547         0.669280      0.081060     -0.622236
C      7.29314      0.08601      7.29314        -0.410286     -0.015096     -0.316602
C      6.23373      0.13007      6.23373         0.724169     -0.058157      0.247038
C      3.19606      0.08601      3.19606         0.660972     -0.018163      0.180316
C      4.25547      0.13007      4.25547        -0.358134     -0.084991     -0.568486
C      3.19606     10.40319      7.29314         0.351264      0.023274     -0.319264
C      4.25547     10.35913      6.23373        -0.740219      0.077748      0.363326
C      3.19606      7.29314     10.40319         0.285539     -0.202924     -0.006395
C      4.25547      6.23373     10.35913         0.042495      0.634025      0.091780
C      7.29314      7.29314      0.08601        -0.716306     -0.610169     -0.027014
C      6.23373      6.23373      0.13007         0.901520      1.124756     -0.065825
C      3.19606      3.19606      0.08601         0.823578      0.514223      0.001882
C      4.25547      4.25547      0.13007        -0.327223     -1.765961     -0.129702
C      7.29314      3.19606     10.40319        -0.325198      0.271232     -0.004331
C      6.23373      4.25547     10.35913         0.507852     -0.021186      0.230916
O     10.43466      3.58206      8.50569        -0.048622      0.186840      0.259750
O     10.54374     17.39634      8.50569         0.042219     -0.236131      0.486645
O     10.54374      3.58206     12.47271         0.083879     -0.074860     -0.023225
O     10.43466     17.39634     12.47271        -0.023156     -0.141635     -0.269081
O      8.50569     10.43466      3.58206         0.992636      0.189707      0.377541
O      8.50569     10.54374     17.39634         0.579308      0.084532     -0.229484
O     12.47271     10.54374      3.58206        -0.414122     -0.040780      0.182296
O     12.47271     10.43466     17.39634        -0.507161     -0.067630     -0.193100
O      3.58206      8.50569     10.43466         0.184384      0.423839     -0.028733
O     17.39634      8.50569     10.54374        -0.230558      0.713074      0.046284
O      3.58206     12.47271     10.54374         0.162144     -0.681987      0.026350
O     17.39634     12.47271     10.43466        -0.186667     -0.475062     -0.010313
O      3.58206     10.43466      8.50569         0.230736     -0.061540      0.406009
O     17.39634     10.54374      8.50569        -0.171893      0.037442      0.412597
O      3.58206     10.54374     12.47271         0.148204      0.021544     -0.303640
O     17.39634     10.43466     12.47271         0.080782     -0.051514     -0.070867
O     10.43466      8.50569      3.58206         0.004643      0.273479      0.183595
O     10.54374      8.50569     17.39634         0.069665      0.427142     -0.174500
O     10.54374     12.47271      3.58206        -0.222055     -0.974597      0.330670
O     10.43466     12.47271     17.39634        -0.082312     -0.450712     -0.245176
O      8.50569      3.58206     10.43466         0.489295      0.197465     -0.009920
O      8.50569     17.39634     10.54374         0.665059     -0.203267      0.022400
O     12.47271      3.58206     10.54374        -0.747055      0.280532      0.038150
O     12.47271     17.39634     10.43466        -0.432563     -0.205705     -0.043507
O     11.90042     11.90042     19.56718        -0.347192     -0.307200      0.261037
O     19.56718     19.56718     19.56718         0.324195      0.311789      0.284232
O     19.56718     11.90042     11.90042         0.274625     -0.273699     -0.138203
O     11.90042     19.56718     11.90042        -0.305315      0.283319     -0.233019
O      9.45224      1.03696      9.45224        -0.061250      0.073272     -0.045056
O      1.03696      9.45224      9.45224         0.035808     -0.075468     -0.069990
O      1.03696      1.03696      1.03696         0.063449      0.149785      0.095851
O      9.45224      9.45224      1.03696        -0.143063     -0.098193      0.096202
Zr     10.48920      2.52580     10.48920         0.163783     -0.173045     -0.167680
Zr     10.48920     18.45260     10.48920        -0.101458      0.187299     -0.050719
Zr     10.48920     10.48920      2.52580         0.343562     -0.310297     -0.204641
Zr     10.48920     10.48920     18.45260         0.014634     -0.088441      0.200312
Zr      2.52580     10.48920     10.48920        -0.071815      0.179716     -0.052365
Zr     18.45260     10.48920     10.48920         0.146792     -0.132565     -0.252583
Ir     12.03852     12.48359     10.45448        -0.006925      0.002359      0.004776
Ir     11.21832      7.41332     10.24455         0.010519     -0.001065     -0.019702
Ir      8.85696      7.34931     11.52375         0.004008     -0.010617     -0.013909
Ir      7.46175     11.64771      7.65750        -0.005896      0.003440      0.001073
Ir     11.59569     12.07249      7.11235         0.000309     -0.005950     -0.004467
Ir     13.78478      8.99324      7.52251         0.006817      0.000904     -0.011773
Ir     12.47116     13.95234      8.40699        -0.004030     -0.001622     -0.003456
Ir      9.73975     11.25458      5.53946         0.005097     -0.004000     -0.005683
Ir      9.07430     13.44262      7.07678        -0.005181     -0.010987      0.005313
Ir      9.26606      9.67271      7.49930        -0.002893      0.007262     -0.013250
Ir     13.28639      7.03581     11.95916        -0.000387     -0.000836      0.005691
Ir     13.63833      7.04202      9.10725         0.016142      0.002190     -0.002649
Ir     11.04527      7.59073     12.79957         0.002047     -0.003283     -0.015904
Ir     13.59782     11.56457      8.75089         0.000157      0.000021     -0.004332
Ir     11.50242      9.62188      6.21862        -0.005340     -0.009061     -0.004583
Ir      7.16141      9.14599      8.91937        -0.002143     -0.007526     -0.007294
Ir     14.06025     11.43977     11.64646         0.001720      0.001070     -0.003975
Ir     11.66137      9.82625      8.85989        -0.002347     -0.014345     -0.012640
Ir      9.44401      9.49912     10.22478         0.007119     -0.000279     -0.004718
Ir     13.87991      9.41304     10.16671         0.006882     -0.000082     -0.005850
Ir     13.83766      9.16314     12.87929         0.006853     -0.002995     -0.011793
Ir     11.70309      9.75830     11.53790         0.003818     -0.002550     -0.007855
Ir      9.91701     11.72813      8.96190         0.002279     -0.003499     -0.003173
Ir      9.11036      7.43378      8.76902         0.014343     -0.002028     -0.021312
Ir     11.63778      7.52259      7.72115         0.026278     -0.017079     -0.017740
Ir      9.25619      9.46614     13.00262         0.002535     -0.004618     -0.004503
Ir      7.50551     13.89901      8.99433         0.000929     -0.004797     -0.001934
Ir     10.86271     14.09868     11.95191        -0.002808     -0.009186     -0.000390
Ir     10.11055     14.14478      9.51501        -0.000620     -0.007888     -0.002232
Ir      9.79054     11.67778     11.72283         0.002140     -0.011084     -0.001247
Ir      7.59058     11.56059     10.20598         0.002320     -0.004195     -0.004788
Ir      8.34357     13.73264     11.58170        -0.005138     -0.002347     -0.001380
Ir      7.52546     11.54045     12.82098        -0.001172     -0.008666      0.000459
Ir      9.77876     11.58958     14.34191         0.005257     -0.011282     -0.000625
Ir     13.46444     13.88406     12.18578        -0.003671     -0.001035     -0.002115
Ir     11.98955     12.04249     13.07652        -0.000160     -0.007731     -0.003200
Ir     11.58639      9.77895     14.17712         0.003649     -0.011114     -0.013264
Ir      7.15829      9.34505     11.47821        -0.001634     -0.007837     -0.004997
