152
# total energy = -1060.08538334 eVH     10.35389      5.87395      7.64558        -0.302369      0.073362      1.122010
H     10.62451     15.10445      7.64558         0.056185     -0.069689      0.930446
H     10.62451      5.87395     13.33282        -0.273947      0.060617     -0.795486
H     10.35389     15.10445     13.33282         0.074157     -0.305639     -0.858109
H      7.64558     10.35389      5.87395         0.927204     -0.155776      0.192010
H      7.64558     10.62451     15.10445         0.327433     -0.036268     -0.068977
H     13.33282     10.62451      5.87395        -0.868554      0.197376      0.226184
H     13.33282     10.35389     15.10445        -0.277140     -0.020897     -0.069225
H      5.87395      7.64558     10.35389         0.089109      0.429229     -0.008865
H     15.10445      7.64558     10.62451         0.000620      0.447646     -0.070023
H      5.87395     13.33282     10.62451        -0.004202     -0.959219      0.092258
H     15.10445     13.33282     10.35389        -0.046654     -0.328629     -0.007070
H      5.87395     10.35389      7.64558         0.292247      0.096067      0.387737
H     15.10445     10.62451      7.64558        -0.117091     -0.176407      0.672714
H      5.87395     10.62451     13.33282        -0.072469      0.460075     -0.615832
H     15.10445     10.35389     13.33282         0.258591     -0.658321     -0.832265
H     10.35389      7.64558      5.87395        -0.047949      0.493672      0.341200
H     10.62451      7.64558     15.10445         0.319446      0.816946      0.010470
H     10.62451     13.33282      5.87395         0.145315     -0.561000      0.200610
H     10.35389     13.33282     15.10445         0.021025     -0.284741     -0.164630
H      7.64558      5.87395     10.35389         0.354833      0.103825      0.050830
H      7.64558     15.10445     10.62451         0.387330     -0.125624      0.168287
H     13.33282      5.87395     10.62451        -0.307571      0.134984     -0.017305
H     13.33282     15.10445     10.35389        -0.669048     -0.086628      0.126127
H     12.45634     12.45634     19.01126         0.256665      0.271823     -0.227777
H     19.01126     19.01126     19.01126        -0.245761     -0.268651     -0.246667
H     19.01126     12.45634     12.45634        -0.250697      0.271538      0.235441
H     12.45634     19.01126     12.45634         0.289349     -0.236838      0.233668
C     10.35284      5.61067      6.59456         0.400784     -0.420184     -1.392276
C     10.62556     15.36773      6.59456        -0.145079      0.581117     -0.642975
C     10.62556      5.61067     14.38384         0.372407     -0.314496      0.800490
C     10.35284     15.36773     14.38384        -0.217852      0.186529      1.082766
C      6.59456     10.35284      5.61067        -1.419392      0.033530     -0.243656
C      6.59456     10.62556     15.36773        -0.646080      0.065308      0.365309
C     14.38384     10.62556      5.61067         1.284607     -0.169795     -0.643418
C     14.38384     10.35284     15.36773         0.335120     -0.121907      0.344583
C      5.61067      6.59456     10.35284        -0.285743     -0.691325     -0.027918
C     15.36773      6.59456     10.62556         0.415113     -0.928820      0.054859
C      5.61067     14.38384     10.62556        -0.142860      1.168699     -0.211425
C     15.36773     14.38384     10.35284         0.507701      0.680171     -0.024648
C      5.61067     10.35284      6.59456        -0.381179     -0.096008     -0.731924
C     15.36773     10.62556      6.59456         0.428662      0.111631     -0.755551
C      5.61067     10.62556     14.38384        -0.397133     -0.170456      1.222090
C     15.36773     10.35284     14.38384         0.266376      0.194178      1.487342
C     10.35284      6.59456      5.61067        -0.056984     -0.742079     -0.597032
C     10.62556      6.59456     15.36773        -0.138408     -0.973004      0.370605
C     10.62556     14.38384      5.61067        -0.476700      0.387288     -0.736599
C     10.35284     14.38384     15.36773        -0.162192      0.724439      0.455846
C      6.59456      5.61067     10.35284        -0.555063     -0.352670      0.008446
C      6.59456     15.36773     10.62556        -0.397204      0.453548      0.058365
C     14.38384      5.61067     10.62556         0.435503     -0.325189      0.000761
C     14.38384     15.36773     10.35284         1.142112      0.524329     -0.069679
C     10.40319      3.19606      7.29314        -0.003271      0.711436     -0.328603
C     10.35913      4.25547      6.23373         0.011648     -0.407617      0.286449
C      0.08601      7.29314      7.29314        -0.017354     -0.359279     -0.508710
C      0.13007      6.23373      6.23373        -0.053676      0.900024      0.084257
C      0.08601      3.19606      3.19606        -0.004610      0.701662      0.264687
C      0.13007      4.25547      4.25547         0.039091     -0.271125     -0.536879
C     10.40319      7.29314      3.19606        -0.067299     -1.146193      0.572506
C     10.35913      6.23373      4.25547        -0.039532      0.360514     -0.194179
C      7.29314     10.40319      3.19606        -1.105009     -0.059569      0.188296
C      6.23373     10.35913      4.25547         0.372390      0.085554     -0.538712
C      7.29314      0.08601      7.29314        -0.414114      0.034819     -0.523571
C      6.23373      0.13007      6.23373         0.181251      0.126711      0.130358
C      3.19606      0.08601      3.19606         0.724458      0.030982      0.162853
C      4.25547      0.13007      4.25547        -0.169299     -0.042149     -0.368560
C      3.19606     10.40319      7.29314         0.365591     -0.023937     -0.918629
C      4.25547     10.35913      6.23373        -0.141281     -0.071333      0.097120
C      3.19606      7.29314     10.40319         0.595114     -0.398454      0.001210
C      4.25547      6.23373     10.35913        -0.111347      0.189890      0.007872
C      7.29314      7.29314      0.08601        -0.421499     -0.311395     -0.018008
C      6.23373      6.23373      0.13007         0.158096      0.179293     -0.045449
C      3.19606      3.19606      0.08601         0.290300      0.486376     -0.026318
C      4.25547      4.25547      0.13007        -0.389700     -0.225260     -0.041471
C      7.29314      3.19606     10.40319        -0.272753      0.582452     -0.010484
C      6.23373      4.25547     10.35913         0.018463     -0.088243      0.018533
O     10.43466      3.58206      8.50569        -0.026181      0.087481      0.315891
O     10.54374     17.39634      8.50569         0.064047     -0.133513      0.609981
O     10.54374      3.58206     12.47271         0.027534      0.101828     -0.393312
O     10.43466     17.39634     12.47271         0.091398     -0.052582     -0.395648
O      8.50569     10.43466      3.58206         0.737254     -0.069111      0.011974
O      8.50569     10.54374     17.39634         0.464185      0.057052     -0.077063
O     12.47271     10.54374      3.58206        -0.667595      0.108343      0.212494
O     12.47271     10.43466     17.39634        -0.279737      0.003542      0.024598
O      3.58206      8.50569     10.43466         0.038145      0.452632     -0.064383
O     17.39634      8.50569     10.54374        -0.054017      0.455353      0.056124
O      3.58206     12.47271     10.54374         0.108297     -0.591141      0.002733
O     17.39634     12.47271     10.43466        -0.172058     -0.726650     -0.055641
O      3.58206     10.43466      8.50569         0.209967     -0.064001      0.797879
O     17.39634     10.54374      8.50569        -0.112276      0.076311      0.575418
O      3.58206     10.54374     12.47271        -0.008110     -0.003975     -0.254532
O     17.39634     10.43466     12.47271         0.045280     -0.012218     -0.211016
O     10.43466      8.50569      3.58206        -0.099053      0.553116     -0.103117
O     10.54374      8.50569     17.39634         0.062909      0.503308     -0.086912
O     10.54374     12.47271      3.58206         0.105254     -0.642027      0.132438
O     10.43466     12.47271     17.39634        -0.063517     -0.665894     -0.256945
O      8.50569      3.58206     10.43466         0.397534      0.028139     -0.038553
O      8.50569     17.39634     10.54374         0.637409     -0.155604      0.047845
O     12.47271      3.58206     10.54374        -0.511091      0.121738      0.031974
O     12.47271     17.39634     10.43466        -0.617961     -0.133495      0.038702
O     11.90042     11.90042     19.56718        -0.276846     -0.308652      0.228701
O     19.56718     19.56718     19.56718         0.305109      0.322275      0.300847
O     19.56718     11.90042     11.90042         0.285093     -0.327896     -0.232278
O     11.90042     19.56718     11.90042        -0.314844      0.230655     -0.200465
O      9.45224      1.03696      9.45224        -0.075181      0.077915     -0.079603
O      1.03696      9.45224      9.45224         0.093782     -0.109479     -0.056269
O      1.03696      1.03696      1.03696         0.081257      0.052045      0.101563
O      9.45224      9.45224      1.03696        -0.057646     -0.129907      0.133518
Zr     10.48920      2.52580     10.48920         0.036252     -0.079870      0.095977
Zr     10.48920     18.45260     10.48920        -0.174521      0.260352     -0.354501
Zr     10.48920     10.48920      2.52580         0.110522      0.359711     -0.356720
Zr     10.48920     10.48920     18.45260        -0.086520     -0.237334      0.211845
Zr      2.52580     10.48920     10.48920        -0.244782      0.135920      0.233197
Zr     18.45260     10.48920     10.48920         0.212782     -0.116282      0.000569
Pd      9.38373     14.26293      9.37010        -0.000178      0.016823     -0.034838
Pd      8.60600     13.67196     12.96393         0.002755     -0.006347      0.022631
Pd     12.02552     14.40170      8.72643         0.009924      0.000909      0.005030
Pd     12.83237     12.86636     10.62609        -0.040591      0.001433      0.021622
Pd     12.10936      7.17078     12.66524         0.015355     -0.011226     -0.026326
Pd     11.22259     14.83197     11.50964        -0.029140      0.026491     -0.024265
Pd     10.11070     12.48474     11.11324        -0.036942      0.032453     -0.026790
Pd     13.47214     12.11533      7.97202         0.002825      0.014601      0.005711
Pd     11.47837     11.53946      6.10229         0.003053      0.001562      0.002824
Pd      7.90154      8.52830      7.52366         0.007155     -0.053607      0.014557
Pd      8.72626     11.74846      6.85629        -0.006704      0.006116     -0.011058
Pd     10.34760      9.45818      8.13974        -0.012516      0.000247     -0.005814
Pd      8.51161     14.45839      6.84691        -0.005957      0.004303     -0.034964
Pd     12.38110      8.98987      6.52356         0.014837      0.013104      0.017061
Pd      9.72129      9.61003      5.56078        -0.001115      0.008078     -0.003230
Pd      6.84015      9.44251     12.17535        -0.010597      0.002605     -0.004545
Pd     12.19137      6.71014      7.92066        -0.003306      0.012865      0.002455
Pd      5.92514     10.46420      9.71962        -0.007860     -0.002461     -0.001493
Pd      7.58678      7.19895     13.39072        -0.018202      0.015330      0.005075
Ir     11.78443      9.75868     13.04332        -0.015938     -0.019278      0.007049
Ir     13.56670      8.99338     11.43730        -0.013996      0.027922      0.012680
Ir      9.46092      8.85096     13.95940        -0.030126     -0.004626      0.023254
Ir     10.56611     11.02942     14.83052        -0.025929     -0.017346      0.028088
Ir      7.28967     12.01148     11.34430        -0.008270      0.004046     -0.001834
Ir     14.68957     10.83045     10.08173        -0.019574      0.041469      0.031512
Ir     12.16009     10.55340      9.71313        -0.000663      0.005684     -0.028229
Ir      8.76138     11.00868     13.00226        -0.001272      0.009253     -0.003777
Ir     10.11155      9.87372     11.19968        -0.001669      0.020391     -0.014953
Ir     13.79422     11.36855     12.40367        -0.028204      0.016413      0.042041
Ir     11.70348     12.36390     13.07940        -0.063431     -0.018792      0.003237
Ir      8.51057     11.07809      9.34868        -0.005195     -0.006088     -0.005558
Ir     11.57462      8.00084     10.11124         0.003890      0.010416     -0.002315
Ir      7.22775     13.01543      8.67680         0.000183      0.011723     -0.007571
Ir      9.51293      6.99308      9.15726         0.010475     -0.010023      0.035386
Ir      8.04293      8.75420     10.07737        -0.000723      0.017370      0.005359
Ir     10.72771     12.10933      8.50906        -0.002738      0.006224      0.007319
Ir      9.51584      7.50377     11.70594         0.001841      0.027377      0.039448
Ir     13.63084      8.78669      8.78919         0.018243     -0.006323      0.021227
