26
# total energy = -205.61059872 eVC      0.70354      1.25204      7.50000        -0.005265      0.002031     -0.000000
C     10.79679      6.56675      7.50000        -0.007127     -0.003690     -0.000000
C      0.73797     11.42806      7.50000         0.003482      0.006536      0.000000
C     11.53061      5.33338      7.50000         0.005265     -0.002031      0.000000
C      1.43736      0.01867      7.50000         0.007127      0.003690      0.000000
C     11.49618     -4.84264      7.50000        -0.003482     -0.006536      0.000000
C     10.79586     -3.64884      7.50000        -0.000115      0.006615      0.000000
C     10.85611      4.12462      7.50000        -0.001504      0.003817      0.000000
C      2.82629      0.04391      7.50000        -0.026030     -0.008235      0.000000
C      1.43829     10.23426      7.50000         0.000115     -0.006615      0.000000
C      1.37804      2.46081      7.50000         0.001504     -0.003817      0.000000
C      9.40786      6.54151      7.50000         0.026030      0.008235      0.000000
N      7.76359      0.26060      7.50000        -0.007179      0.001988      0.000000
N      4.47056      6.32482      7.50000         0.007179     -0.001988      0.000000
N      4.00853      0.08346      7.50000         0.015996     -0.002356     -0.000000
N     10.23052     -2.60923      7.50000         0.000609     -0.005516     -0.000000
N     10.29615      3.08225      7.50000         0.000851     -0.002930     -0.000000
N      8.22562      6.50196      7.50000        -0.015996      0.002356     -0.000000
N      2.00363      9.19465      7.50000        -0.000609      0.005516     -0.000000
N      1.93800      3.50317      7.50000        -0.000851      0.002930     -0.000000
Ir      2.99305      7.53242      7.50000         0.002184     -0.006464      0.000000
Ir      2.98145      5.13096      7.50000         0.006409      0.002219     -0.000000
Ir      6.29777      6.40892      7.50000         0.012662     -0.003191     -0.000000
Ir      9.24110     -0.94700      7.50000        -0.002184      0.006464      0.000000
Ir      9.25270      1.45446      7.50000        -0.006409     -0.002219     -0.000000
Ir      5.93638      0.17651      7.50000        -0.012662      0.003191     -0.000000
