152
# total energy = -1024.28079554 eVH     10.35389      5.87395      7.64558         0.489355      0.043048      0.747922
H     10.62451     15.10445      7.64558         0.012779     -0.184437      0.577996
H     10.62451      5.87395     13.33282         0.117918      0.158242     -0.602852
H     10.35389     15.10445     13.33282        -0.406638     -0.058776     -0.748904
H      7.64558     10.35389      5.87395         0.337431      0.002955      0.178525
H      7.64558     10.62451     15.10445         0.834877     -0.325958     -0.033597
H     13.33282     10.62451      5.87395        -0.759807     -0.014999      0.159487
H     13.33282     10.35389     15.10445        -0.883788     -0.396649      0.203372
H      5.87395      7.64558     10.35389         0.210601      0.591925     -0.012730
H     15.10445      7.64558     10.62451        -0.143248      0.401288     -0.044154
H      5.87395     13.33282     10.62451         0.164812     -0.509654     -0.102937
H     15.10445     13.33282     10.35389        -0.107988     -1.140780     -0.014639
H      5.87395     10.35389      7.64558         0.136643      0.119998      0.486438
H     15.10445     10.62451      7.64558         0.052421      0.093060      1.052663
H      5.87395     10.62451     13.33282         0.115495     -0.029547     -0.422140
H     15.10445     10.35389     13.33282        -0.102414     -0.156926     -0.608245
H     10.35389      7.64558      5.87395         0.057115      0.958126      0.240216
H     10.62451      7.64558     15.10445         0.013523      0.281687     -0.179166
H     10.62451     13.33282      5.87395        -0.084778     -0.468264      0.322173
H     10.35389     13.33282     15.10445        -0.438025     -0.659550     -0.030655
H      7.64558      5.87395     10.35389         0.474922      0.120607      0.053187
H      7.64558     15.10445     10.62451         0.880268     -0.261899     -0.015837
H     13.33282      5.87395     10.62451        -0.564258      0.143085     -0.080478
H     13.33282     15.10445     10.35389        -0.625449     -0.065473      0.208535
H     12.45634     12.45634     19.01126         0.239535      0.274963     -0.235042
H     19.01126     19.01126     19.01126        -0.253233     -0.246112     -0.242743
H     19.01126     12.45634     12.45634        -0.260789      0.269245      0.221911
H     12.45634     19.01126     12.45634         0.229803     -0.263630      0.244183
C     10.35284      5.61067      6.59456        -0.178724     -0.624961      0.060093
C     10.62556     15.36773      6.59456        -0.018568      0.392397     -0.751487
C     10.62556      5.61067     14.38384        -0.020963     -0.077722      0.729939
C     10.35284     15.36773     14.38384         0.150708      0.719624      0.160450
C      6.59456     10.35284      5.61067        -0.380496     -0.026276     -0.265181
C      6.59456     10.62556     15.36773        -1.009908      0.333461      0.405228
C     14.38384     10.62556      5.61067         0.428197      0.298886     -0.602444
C     14.38384     10.35284     15.36773         0.964123     -0.009591      0.369439
C      5.61067      6.59456     10.35284        -0.384586     -0.498254      0.223266
C     15.36773      6.59456     10.62556         0.195410     -0.526807      0.029805
C      5.61067     14.38384     10.62556        -0.168911      0.552268      0.009063
C     15.36773     14.38384     10.35284         0.337496      0.013740     -0.128827
C      5.61067     10.35284      6.59456        -0.305282     -0.058483     -0.899846
C     15.36773     10.62556      6.59456         0.739651     -0.289688     -1.085861
C      5.61067     10.62556     14.38384        -0.477340      0.003071      0.304770
C     15.36773     10.35284     14.38384         0.669337     -0.113120      1.130265
C     10.35284      6.59456      5.61067        -0.239150     -0.601474     -0.844764
C     10.62556      6.59456     15.36773         0.049752     -0.295419      0.086659
C     10.62556     14.38384      5.61067         0.124670      1.244009     -0.443185
C     10.35284     14.38384     15.36773         0.204073      0.121438      0.688340
C      6.59456      5.61067     10.35284        -0.371638     -0.727563      0.064861
C      6.59456     15.36773     10.62556        -1.221412      0.279289      0.072010
C     14.38384      5.61067     10.62556         0.886090     -0.274425      0.026169
C     14.38384     15.36773     10.35284        -0.490711      0.735862     -0.351567
C     10.40319      3.19606      7.29314        -0.018080      0.834589     -0.393277
C     10.35913      4.25547      6.23373         0.033705     -0.465152      0.587347
C      0.08601      7.29314      7.29314        -0.017983     -0.492821     -0.359913
C      0.13007      6.23373      6.23373        -0.019086      0.017276      0.095903
C      0.08601      3.19606      3.19606        -0.004713      1.191092      0.184888
C      0.13007      4.25547      4.25547        -0.051994     -0.218253     -0.235350
C     10.40319      7.29314      3.19606        -0.003510     -1.024271      0.409810
C     10.35913      6.23373      4.25547         0.024640      0.466060     -0.649435
C      7.29314     10.40319      3.19606        -0.393072      0.043940      0.810227
C      6.23373     10.35913      4.25547         0.235210      0.088241     -0.117177
C      7.29314      0.08601      7.29314        -0.583000     -0.025977     -0.259518
C      6.23373      0.13007      6.23373         0.387012     -0.066342      0.426777
C      3.19606      0.08601      3.19606         0.857217     -0.017803      0.346872
C      4.25547      0.13007      4.25547        -0.104882     -0.061868     -0.475597
C      3.19606     10.40319      7.29314         0.481152     -0.000433     -0.755828
C      4.25547     10.35913      6.23373        -0.250006      0.109283      0.248049
C      3.19606      7.29314     10.40319         0.492920     -1.371206     -0.042681
C      4.25547      6.23373     10.35913        -0.384246      0.801251      0.037661
C      7.29314      7.29314      0.08601        -0.431960     -0.230539     -0.010695
C      6.23373      6.23373      0.13007         0.167341      0.144008     -0.014139
C      3.19606      3.19606      0.08601         0.248499      0.254606     -0.020590
C      4.25547      4.25547      0.13007        -0.097402     -0.048212      0.017620
C      7.29314      3.19606     10.40319        -0.358159      0.684996      0.013942
C      6.23373      4.25547     10.35913         1.095989      0.056789      0.003349
O     10.43466      3.58206      8.50569        -0.029330      0.057099      0.451791
O     10.54374     17.39634      8.50569        -0.005610     -0.087663      0.439698
O     10.54374      3.58206     12.47271         0.046259     -0.083427     -0.149198
O     10.43466     17.39634     12.47271        -0.052779     -0.050704     -0.487804
O      8.50569     10.43466      3.58206         0.332469     -0.029092     -0.039946
O      8.50569     10.54374     17.39634         0.678367      0.027954     -0.167276
O     12.47271     10.54374      3.58206        -0.721792     -0.034162      0.148930
O     12.47271     10.43466     17.39634        -0.451842     -0.027459     -0.046934
O      3.58206      8.50569     10.43466         0.140254      1.102755     -0.000900
O     17.39634      8.50569     10.54374        -0.077795      0.407539      0.066510
O      3.58206     12.47271     10.54374         0.070334     -0.415768      0.040140
O     17.39634     12.47271     10.43466        -0.157504     -0.702090      0.004827
O      3.58206     10.43466      8.50569         0.026586     -0.074006      0.647967
O     17.39634     10.54374      8.50569        -0.067296      0.043415      0.332179
O      3.58206     10.54374     12.47271        -0.002290      0.024331     -0.309616
O     17.39634     10.43466     12.47271        -0.234891      0.018544     -0.740459
O     10.43466      8.50569      3.58206         0.109005      0.844374      0.201806
O     10.54374      8.50569     17.39634         0.036131      0.673643     -0.159908
O     10.54374     12.47271      3.58206        -0.022803     -1.012150      0.220845
O     10.43466     12.47271     17.39634        -0.028408     -0.890062     -0.194271
O      8.50569      3.58206     10.43466         0.518911      0.100001     -0.019846
O      8.50569     17.39634     10.54374         0.546971     -0.214216     -0.018850
O     12.47271      3.58206     10.54374        -0.469271      0.155645      0.056635
O     12.47271     17.39634     10.43466        -0.377145      0.050842     -0.009282
O     11.90042     11.90042     19.56718        -0.276661     -0.327006      0.261984
O     19.56718     19.56718     19.56718         0.282414      0.282781      0.287455
O     19.56718     11.90042     11.90042         0.289197     -0.306405     -0.199301
O     11.90042     19.56718     11.90042        -0.269712      0.279121     -0.249783
O      9.45224      1.03696      9.45224        -0.086713      0.052686     -0.054210
O      1.03696      9.45224      9.45224         0.036221     -0.174332     -0.108232
O      1.03696      1.03696      1.03696         0.001788      0.105235      0.216304
O      9.45224      9.45224      1.03696        -0.056401     -0.084591      0.137267
Zr     10.48920      2.52580     10.48920        -0.019215     -0.109958     -0.172546
Zr     10.48920     18.45260     10.48920         0.023988      0.239798     -0.021635
Zr     10.48920     10.48920      2.52580        -0.067118     -0.169251     -0.552388
Zr     10.48920     10.48920     18.45260        -0.035996      0.046297      0.467544
Zr      2.52580     10.48920     10.48920        -0.363995      0.329503      0.099826
Zr     18.45260     10.48920     10.48920         0.201964      0.038918     -0.252631
Pd      8.59173      9.92090     13.23342        -0.036016     -0.071746     -0.048724
Pd     10.53297      9.50327     10.29921        -0.036676     -0.041379      0.032937
Pd     13.40975      8.73616     12.51588        -0.070443     -0.011990     -0.055059
Pd     10.44759     10.63290     15.09305         0.046711      0.004568      0.064587
Pd     12.99524     11.35667     13.47549         0.001389     -0.046772      0.027791
Pd     14.95850     10.73188     11.29913        -0.011335     -0.002087     -0.017004
Pd      6.80683      7.89905     12.57069         0.049180     -0.021098     -0.059191
Pd      9.23832      7.21987      9.58338         0.020043      0.004095      0.033999
Pd      9.48130      7.53266     12.31949        -0.046270      0.039275      0.019932
Pd     11.75393      7.21285     11.00562         0.005930     -0.006795     -0.030436
Pd     11.60781      7.85944      8.38067         0.007784      0.012237      0.012510
Pd      7.17750     11.72220     11.63576        -0.016224      0.032737     -0.012590
Pd      9.22573     14.37434      9.38734         0.004405      0.016299      0.004414
Pd      8.20891     12.40980     14.21783        -0.041428     -0.007266     -0.023522
Pd     14.14630     14.19868      8.33489         0.017825      0.012311      0.030462
Pd     11.65400     13.36073      8.84505         0.013506     -0.010993     -0.026641
Pd     14.07531     11.62467      8.94264         0.030213      0.023002      0.007950
Pd      8.76774     13.91210     12.12056         0.022398      0.004322      0.005671
Pd     12.20193     13.89953     13.99263         0.028183      0.036843      0.004120
Pd     11.42025     14.09438     11.38271        -0.057360      0.013314      0.025404
Pd     14.07201     13.43101     12.13886        -0.050177     -0.015750     -0.033615
Pd     12.34332     11.61307     10.91257        -0.017943     -0.008605     -0.025507
Pd     12.83743     12.62163      6.61063         0.044486     -0.010659      0.034566
Pd     13.89200      8.90564      7.60698         0.033601     -0.016767      0.001467
Pd      6.96729      8.43431      8.52284        -0.042776      0.008887     -0.064805
Pd      5.55946     10.00916     10.23785        -0.076559      0.022867     -0.006799
Pd      9.34855      9.47741      7.60038         0.039960      0.054134     -0.030077
Pd      8.50889      6.99749      6.97371        -0.030661     -0.034130     -0.005415
Pd      9.68733     11.93687     10.56176         0.019981      0.043189      0.084209
Pd     11.70808     10.66624      8.14588        -0.003053      0.011883     -0.080943
Pd     11.67852      9.01521      5.94869         0.032009     -0.001887      0.021225
Pd     10.41237     11.36391      5.82724         0.009856     -0.031723     -0.037466
Ir     11.06851      9.61918     12.76960         0.014591      0.006913     -0.066059
Ir     13.17472      9.31206     10.01550         0.009849     -0.006969     -0.010908
Ir     10.53767     12.08145     12.93457        -0.079117      0.029241     -0.050711
Ir      7.69328     10.99345      9.14823         0.049069      0.091906     -0.095045
Ir      9.44607     12.15002      8.03135         0.015232     -0.073103     -0.031193
Ir      8.05473      9.23679     10.81479         0.109053     -0.051531      0.115849
