31
# total energy = -195.18695705 eVH      2.21015      8.01518      7.50000         0.032383      0.002085     -0.000000
H      8.91925      3.11422      7.50000        -0.032383     -0.002085      0.000000
H      3.11422      2.21015      7.50000        -0.002085      0.032383      0.000000
H      8.01518      8.91925      7.50000         0.002085     -0.032383     -0.000000
H      1.48521      6.35859      7.50000        -0.000272     -0.001856      0.000000
H      9.64419      4.77081      7.50000         0.000272      0.001856     -0.000000
H      4.77081      1.48521      7.50000         0.001856     -0.000272     -0.000000
H      6.35859      9.64419      7.50000        -0.001856      0.000272     -0.000000
H      4.18030      9.01776      7.50000         0.002688     -0.026644      0.000000
H      6.94910      2.11164      7.50000        -0.002688      0.026644      0.000000
H      2.11164      4.18030      7.50000         0.026644      0.002688     -0.000000
H      9.01776      6.94910      7.50000        -0.026644     -0.002688      0.000000
C      8.51185      0.92840      7.50000         0.011616     -0.014728      0.000000
C      2.61755     10.20100      7.50000        -0.011616      0.014728     -0.000000
C     10.20100      8.51185      7.50000         0.014728      0.011616      0.000000
C      0.92840      2.61755      7.50000        -0.014728     -0.011616     -0.000000
C      9.20080     10.76170      7.50000        -0.025826      0.035590      0.000000
C      1.92860      0.36770      7.50000         0.025826     -0.035590     -0.000000
C      0.36770      9.20080      7.50000        -0.035590     -0.025826     -0.000000
C     10.76170      1.92860      7.50000         0.035590      0.025826      0.000000
C      9.37329      2.10402      7.50000        -0.018044      0.029117     -0.000000
C      1.75611      9.02538      7.50000         0.018044     -0.029117      0.000000
C      9.02538      9.37329      7.50000        -0.029117     -0.018044     -0.000000
C      2.10402      1.75611      7.50000         0.029117      0.018044      0.000000
N      3.96640     10.02090      7.50000        -0.000725      0.011462      0.000000
N      7.16300      1.10850      7.50000         0.000725     -0.011462     -0.000000
N      1.10850      3.96640      7.50000        -0.011462     -0.000725     -0.000000
N     10.02090      7.16300      7.50000         0.011462      0.000725     -0.000000
Ir      0.00000     -0.00000      7.50000         0.000000     -0.000000      0.000000
Ir      5.56470     -0.00000      7.50000         0.000000     -0.000000      0.000000
Ir      0.00000      5.56470      7.50000         0.000000     -0.000000      0.000000
