152
# total energy = -1061.35156679 eVH     10.35389      5.87395      7.64558        -0.158609      0.137439      0.998997
H     10.62451     15.10445      7.64558         0.227320     -0.072054      0.836463
H     10.62451      5.87395     13.33282        -0.152876      0.084994     -0.512905
H     10.35389     15.10445     13.33282         0.063281     -0.232715     -0.435797
H      7.64558     10.35389      5.87395         0.843109      0.095734      0.206229
H      7.64558     10.62451     15.10445         0.187986     -0.000357     -0.065997
H     13.33282     10.62451      5.87395        -0.638346     -0.028899      0.173804
H     13.33282     10.35389     15.10445        -0.336455     -0.090068     -0.049809
H      5.87395      7.64558     10.35389         0.136530      0.363600     -0.034914
H     15.10445      7.64558     10.62451        -0.130247      0.609458      0.268139
H      5.87395     13.33282     10.62451         0.132695     -0.559324      0.003621
H     15.10445     13.33282     10.35389        -0.239579     -0.456782      0.112455
H      5.87395     10.35389      7.64558         0.203689      0.195070      0.379120
H     15.10445     10.62451      7.64558        -0.176561     -0.154996      0.470608
H      5.87395     10.62451     13.33282         0.035498      0.133085     -0.727977
H     15.10445     10.35389     13.33282         0.097637     -0.300507     -0.749965
H     10.35389      7.64558      5.87395        -0.089156      0.436617      0.255112
H     10.62451      7.64558     15.10445         0.412620      0.707390     -0.104425
H     10.62451     13.33282      5.87395         0.243977     -0.585421      0.117492
H     10.35389     13.33282     15.10445         0.165112     -0.659560     -0.077486
H      7.64558      5.87395     10.35389         0.431542      0.154944     -0.053706
H      7.64558     15.10445     10.62451         0.451126     -0.168327      0.335852
H     13.33282      5.87395     10.62451        -0.358764      0.146121     -0.044980
H     13.33282     15.10445     10.35389        -0.546198     -0.244313      0.158352
H     12.45634     12.45634     19.01126         0.240023      0.264453     -0.240476
H     19.01126     19.01126     19.01126        -0.255793     -0.265001     -0.228415
H     19.01126     12.45634     12.45634        -0.231861      0.267979      0.242565
H     12.45634     19.01126     12.45634         0.287501     -0.211357      0.245836
C     10.35284      5.61067      6.59456         0.315146     -0.296312     -0.911465
C     10.62556     15.36773      6.59456        -0.152666      0.685143     -0.378925
C     10.62556      5.61067     14.38384         0.268001     -0.342522      0.521678
C     10.35284     15.36773     14.38384        -0.128282      0.274213      0.395953
C      6.59456     10.35284      5.61067        -0.786120     -0.151927     -0.215331
C      6.59456     10.62556     15.36773        -0.552561      0.063676      0.347079
C     14.38384     10.62556      5.61067         0.962353     -0.004987     -0.530444
C     14.38384     10.35284     15.36773         0.279308     -0.089767      0.377428
C      5.61067      6.59456     10.35284        -0.375928     -0.472229      0.036789
C     15.36773      6.59456     10.62556         0.266162     -0.706723     -0.155045
C      5.61067     14.38384     10.62556        -0.186896      0.609441     -0.239857
C     15.36773     14.38384     10.35284         0.378930      0.831880     -0.124552
C      5.61067     10.35284      6.59456        -0.255486     -0.130157     -0.216783
C     15.36773     10.62556      6.59456         0.211328      0.153293     -0.401721
C      5.61067     10.62556     14.38384        -0.365855     -0.020345      1.230670
C     15.36773     10.35284     14.38384         0.263883     -0.023313      1.006888
C     10.35284      6.59456      5.61067         0.038374     -0.323335     -0.453751
C     10.62556      6.59456     15.36773        -0.042453     -0.875475      0.272078
C     10.62556     14.38384      5.61067        -0.391488      0.000319     -0.801546
C     10.35284     14.38384     15.36773        -0.229028      0.903893      0.240545
C      6.59456      5.61067     10.35284        -0.410268     -0.294007      0.169866
C      6.59456     15.36773     10.62556        -0.529214      0.526062      0.029500
C     14.38384      5.61067     10.62556         0.402584     -0.313703      0.073162
C     14.38384     15.36773     10.35284         0.823332      0.290845     -0.066342
C     10.40319      3.19606      7.29314        -0.001772      0.635506     -0.326174
C     10.35913      4.25547      6.23373         0.002561     -0.473791      0.411626
C      0.08601      7.29314      7.29314        -0.024370     -0.807753     -0.465454
C      0.13007      6.23373      6.23373        -0.151951      0.854965      0.128354
C      0.08601      3.19606      3.19606        -0.012423      0.372491      0.381514
C      0.13007      4.25547      4.25547         0.071199     -0.163438     -0.646319
C     10.40319      7.29314      3.19606        -0.046669     -1.094783      0.886016
C     10.35913      6.23373      4.25547         0.014324      0.335245     -0.175638
C      7.29314     10.40319      3.19606        -1.059254     -0.069273      0.362600
C      6.23373     10.35913      4.25547         0.287152      0.032629     -0.618355
C      7.29314      0.08601      7.29314        -0.956817     -0.002303     -0.400537
C      6.23373      0.13007      6.23373         0.195589      0.017166      0.113637
C      3.19606      0.08601      3.19606         0.335408     -0.004129      0.370784
C      4.25547      0.13007      4.25547        -0.273849     -0.046194     -0.160180
C      3.19606     10.40319      7.29314         0.488669     -0.047571     -1.083452
C      4.25547     10.35913      6.23373        -0.303275     -0.047583      0.136385
C      3.19606      7.29314     10.40319         0.832838     -0.507939      0.012360
C      4.25547      6.23373     10.35913        -0.124768      0.162058     -0.001346
C      7.29314      7.29314      0.08601        -0.407582     -0.269727     -0.005852
C      6.23373      6.23373      0.13007         0.245295      0.067892     -0.141469
C      3.19606      3.19606      0.08601         0.331432      0.686601     -0.008985
C      4.25547      4.25547      0.13007        -0.359991     -0.229873      0.054814
C      7.29314      3.19606     10.40319        -0.215864      0.559819      0.020216
C      6.23373      4.25547     10.35913         0.059442     -0.255460      0.006983
O     10.43466      3.58206      8.50569        -0.018066      0.113970      0.340825
O     10.54374     17.39634      8.50569         0.063008      0.031429      0.321992
O     10.54374      3.58206     12.47271         0.042701      0.198308     -0.572287
O     10.43466     17.39634     12.47271         0.032657     -0.007615     -0.469754
O      8.50569     10.43466      3.58206         0.724271     -0.074530      0.073136
O      8.50569     10.54374     17.39634         0.921639      0.032957     -0.162151
O     12.47271     10.54374      3.58206        -0.352140      0.045655      0.065944
O     12.47271     10.43466     17.39634        -0.343298     -0.022768      0.065190
O      3.58206      8.50569     10.43466        -0.024733      0.400214     -0.083393
O     17.39634      8.50569     10.54374        -0.119735      0.428166      0.032451
O      3.58206     12.47271     10.54374         0.128805     -0.699893     -0.010399
O     17.39634     12.47271     10.43466        -0.247319     -0.666295     -0.012272
O      3.58206     10.43466      8.50569         0.137214     -0.044069      0.833879
O     17.39634     10.54374      8.50569         0.041481      0.044466      0.281657
O      3.58206     10.54374     12.47271         0.069818      0.019216     -0.443461
O     17.39634     10.43466     12.47271        -0.016917      0.015750     -0.317084
O     10.43466      8.50569      3.58206        -0.068951      0.570424     -0.088050
O     10.54374      8.50569     17.39634         0.024087      0.840268     -0.178421
O     10.54374     12.47271      3.58206         0.057457     -0.370246      0.089404
O     10.43466     12.47271     17.39634        -0.062545     -0.677693     -0.214241
O      8.50569      3.58206     10.43466         0.346536      0.065519     -0.052928
O      8.50569     17.39634     10.54374         0.503585     -0.131846      0.017374
O     12.47271      3.58206     10.54374        -0.401484      0.096355      0.023787
O     12.47271     17.39634     10.43466        -0.675020     -0.094836      0.062621
O     11.90042     11.90042     19.56718        -0.249065     -0.278352      0.225760
O     19.56718     19.56718     19.56718         0.288389      0.302509      0.249204
O     19.56718     11.90042     11.90042         0.235986     -0.298846     -0.289340
O     11.90042     19.56718     11.90042        -0.286233      0.179141     -0.255429
O      9.45224      1.03696      9.45224        -0.120737      0.116752     -0.082073
O      1.03696      9.45224      9.45224         0.150660     -0.132719     -0.154795
O      1.03696      1.03696      1.03696         0.139716      0.194697     -0.012317
O      9.45224      9.45224      1.03696        -0.205247     -0.169618      0.048471
Zr     10.48920      2.52580     10.48920         0.008927     -0.244774      0.192477
Zr     10.48920     18.45260     10.48920        -0.236072      0.252617     -0.266986
Zr     10.48920     10.48920      2.52580         0.265296      0.461003     -0.211613
Zr     10.48920     10.48920     18.45260         0.038490     -0.066424      0.489513
Zr      2.52580     10.48920     10.48920        -0.540415      0.062427      0.365607
Zr     18.45260     10.48920     10.48920         0.263444     -0.155030      0.030832
Pd      9.08799     14.47033      9.20664        -0.016145      0.104216     -0.002478
Pd      8.35553     13.25206     13.74024        -0.004016     -0.032515      0.020133
Pd     11.96505     14.25059      8.78866         0.031721      0.013262     -0.027418
Pd     12.27833     12.75754     10.90975         0.099071     -0.016175      0.073803
Pd     11.86628      7.10916     12.08740        -0.021738     -0.061759      0.004768
Pd     10.97270     15.28792     11.05577         0.076768      0.048205     -0.027202
Pd      9.62028     13.04018     11.40855        -0.093086      0.031627      0.020471
Pd     13.94006     12.55527      8.24564         0.038203     -0.052736     -0.073355
Pd     11.69160     11.72531      6.79987         0.014718      0.008150      0.021274
Pd      7.53992      8.49605      7.27992        -0.027117     -0.014633     -0.014183
Pd      8.76244     11.95808      6.87667         0.003626      0.000032      0.034048
Pd      9.82694      9.80428      8.06085         0.002758      0.078674     -0.032642
Pd      8.49649     14.61307      6.55685        -0.004958     -0.011866     -0.037837
Pd     12.16441      9.01884      6.96176         0.015163     -0.020453     -0.090525
Pd     10.07352      9.96330      5.43894        -0.030885     -0.032192     -0.013369
Pd      6.92940      9.15340     12.24113         0.006440      0.071276     -0.042742
Pd     12.41511      6.49831      7.83960        -0.030009      0.013493     -0.017585
Pd      5.62929     10.56107     10.02592        -0.048968      0.010612      0.019973
Pd      7.67039      6.65019     12.93544        -0.004816      0.014930     -0.071115
Ir     11.30437      9.58097     12.97482        -0.000604      0.073228     -0.070369
Ir     13.10109      9.25000     11.23530         0.074368      0.129187      0.115258
Ir      9.16666      8.49405     13.89455         0.029852     -0.044306     -0.033684
Ir     10.24957     10.47755     15.15977        -0.008034     -0.038425     -0.005023
Ir      7.07570     11.82837     11.79535         0.123683     -0.047511      0.092964
Ir     14.50034     11.12659     10.43596        -0.068604     -0.033004      0.047650
Ir     12.36140     10.58918      9.15780        -0.014367      0.039858      0.000344
Ir      8.92204     10.81595     12.93918        -0.061392      0.050994     -0.056747
Ir     10.06202     10.25287     10.70035        -0.058111      0.040215      0.031932
Ir     13.31808     11.27951     12.70538        -0.061571     -0.034610     -0.143791
Ir     11.09908     12.07985     13.39553         0.034732     -0.055785     -0.052998
Ir      8.00636     11.64404      9.49435         0.060542     -0.029894      0.029839
Ir     11.35407      8.13652      9.61366        -0.050949     -0.043716     -0.041802
Ir      6.94697     13.33882      8.19363        -0.076472      0.092365      0.011962
Ir      9.16765      7.23952      8.91752         0.001992     -0.075254     -0.000264
Ir      7.82577      9.13391      9.79763        -0.041075      0.069709     -0.000956
Ir     10.42407     12.25771      8.98648        -0.071737     -0.101431      0.000554
Ir      9.38227      7.86486     11.39913         0.018272      0.027419     -0.029699
Ir     13.80945      8.44031      8.95374         0.072875     -0.073198     -0.107519
