35
# total energy = -286.26773250 eVC      6.62177     10.18435      7.54843         0.015755      0.014068      0.000927
C      8.01181      9.81278      7.54267         0.018567      0.032983     -0.000295
C      9.29300      5.59760      7.55624         0.024215      0.028611      0.001667
C      1.50955      5.33239      7.55802        -0.028680     -0.026867      0.003182
C      4.18067      0.74551      7.57666        -0.016223     -0.010887     -0.000829
C      2.79054      1.11721      7.56875        -0.024252     -0.024209      0.002412
C      0.70721      4.14832      7.55931        -0.012301     -0.016997     -0.002886
C      1.10694      2.76607      7.56145        -0.031694     -0.014496      0.002379
C      5.34824      1.57160      7.58176        -0.030512     -0.026346     -0.000919
C      5.45426      9.35827      7.55437         0.023523      0.030262      0.000179
C     10.09531      6.78156      7.54719         0.010355      0.017533     -0.001747
C      9.69521      8.16369      7.54172         0.020811      0.023622      0.003120
C      0.75472      6.54262      7.55224        -0.015671      0.013510      0.000214
C      1.18733      7.92136      7.54712         0.023862      0.008220     -0.000726
C     10.04772      4.38737      7.55609         0.015693     -0.014553      0.000591
C      9.61486      3.00857      7.56068        -0.018980     -0.009081     -0.000820
C      4.22886     10.08834      7.55020        -0.013391      0.017298     -0.000421
C      2.85922      9.62762      7.54548        -0.007857     -0.023065      0.001131
C      6.57348      0.84153      7.57627         0.016574     -0.015172      0.000467
C      7.94312      1.30231      7.56995         0.010097      0.022072     -0.002023
N      8.78046      0.21960      7.56559        -0.005062     -0.000260      0.004376
N      0.08752      8.73624      7.54353         0.001327     -0.003532      0.003576
N      8.43578      8.56214      7.54314         0.046378      0.024795      0.000819
N      2.36608      2.36811      7.56339        -0.021193     -0.052009      0.003883
N      2.02198     10.71043      7.53920         0.003655      0.003474      0.003405
N     10.71454      2.19353      7.55848        -0.002583      0.005319      0.003212
N      2.47847      8.32848      7.54769         0.022051     -0.021391      0.003179
N      8.32380      2.60145      7.56717        -0.024032      0.025114      0.001855
O      5.26030      2.85987      7.59108        -0.012602     -0.005530     -0.007793
O      5.54232      8.07014      7.56252         0.016885      0.001020     -0.004520
O      8.00321      5.65948      7.56551         0.004279      0.011600     -0.003269
O      2.79927      5.27062      7.56355        -0.002969     -0.018482     -0.004956
Pd      6.81849      4.07668      7.57892         0.007500     -0.007041     -0.006299
Pd      3.98439      6.85303      7.56237        -0.010958      0.008604     -0.005227
Pd      0.02567     10.73145      7.53933        -0.002570      0.001812      0.002159
