26
# total energy = -208.95120493 eVC      8.64653      1.68670      0.00000        -0.015071     -0.042736     -0.000000
C      0.68989      7.64972      0.00000         0.015071      0.042736      0.000000
C      7.64972      8.64653      0.00000         0.042736     -0.015071      0.000000
C      1.68670      0.68989     -0.00000        -0.042736      0.015071     -0.000000
C      0.68989      1.68670      0.00000         0.015071     -0.042736     -0.000000
C      8.64653      7.64972     -0.00000        -0.015071      0.042736     -0.000000
C      1.68670      8.64653     -0.00000        -0.042736     -0.015071      0.000000
C      7.64972      0.68989     -0.00000         0.042736      0.015071      0.000000
C      8.03925      2.97876     -0.00000         0.025183      0.008338     -0.000000
C      1.29717      6.35766      0.00000        -0.025183     -0.008338      0.000000
C      6.35766      8.03925     -0.00000        -0.008338      0.025183      0.000000
C      2.97876      1.29717     -0.00000         0.008338     -0.025183     -0.000000
C      1.29717      2.97876      0.00000        -0.025183      0.008338      0.000000
C      8.03925      6.35766      0.00000         0.025183     -0.008338      0.000000
C      2.97876      8.03925      0.00000         0.008338      0.025183     -0.000000
C      6.35766      1.29717     -0.00000        -0.008338     -0.025183      0.000000
N      2.66846      6.66796      0.00000         0.009143     -0.009143     -0.000000
N      6.66796      2.66846     -0.00000        -0.009143      0.009143     -0.000000
N      2.66846      2.66846     -0.00000         0.009143      0.009143     -0.000000
N      6.66796      6.66796      0.00000        -0.009143     -0.009143     -0.000000
Ir     -0.00000      4.66821      0.00000        -0.000000      0.000000     -0.000000
Ir      4.66821      0.00000      0.00000        -0.000000      0.000000     -0.000000
Ir      4.66821      6.43936      0.00000        -0.000000      0.018389     -0.000000
Ir      4.66821      2.89706      0.00000        -0.000000     -0.018389     -0.000000
Ir      2.89706      4.66821     -0.00000        -0.018389      0.000000     -0.000000
Ir      6.43936      4.66821      0.00000         0.018389      0.000000      0.000000
