35
# total energy = -286.26659336 eVC      6.62231     10.18412      7.54827        -0.016818      0.021296      0.002129
C      8.01173      9.81144      7.54259         0.005817      0.033336     -0.000809
C      9.29410      5.59633      7.55636         0.012140      0.058097      0.001329
C      1.50846      5.33360      7.55814        -0.011529     -0.056388      0.002019
C      4.18015      0.74577      7.57665         0.012069     -0.020681     -0.000360
C      2.79026      1.11896      7.56851         0.017529     -0.072729      0.002958
C      0.70742      4.14777      7.55929        -0.021542      0.011330     -0.002967
C      1.10816      2.76614      7.56121        -0.026398     -0.005100      0.003430
C      5.34966      1.57062      7.58203        -0.064415     -0.016601     -0.001837
C      5.45291      9.35933      7.55448         0.058810      0.009381     -0.000554
C     10.09506      6.78206      7.54710         0.023766     -0.006677     -0.000731
C      9.69354      8.16392      7.54166         0.071433     -0.014346      0.002370
C      0.75489      6.54409      7.55214        -0.062809     -0.000683      0.000546
C      1.18634      7.92283      7.54691        -0.003804      0.005447      0.000201
C     10.04761      4.38583      7.55618         0.056033      0.002569      0.000136
C      9.61612      3.00700      7.56070        -0.018029     -0.000810     -0.001710
C      4.22729     10.08812      7.55023         0.001487      0.068772     -0.000528
C      2.85773      9.62876      7.54537        -0.012680     -0.001260      0.000668
C      6.57508      0.84170      7.57619        -0.003315     -0.058993      0.000914
C      7.94462      1.30108      7.56985         0.005325      0.015594     -0.002243
N      8.78136      0.21809      7.56548        -0.022553     -0.015430      0.004413
N      0.08604      8.73727      7.54334        -0.006775     -0.026089      0.003519
N      8.43402      8.55972      7.54313         0.031592      0.072635      0.000447
N      2.36850      2.37002      7.56303        -0.075843     -0.035064      0.004177
N      2.02084     10.71212      7.53896         0.028247      0.004640      0.003580
N     10.71592      2.19252      7.55838         0.016882      0.027258      0.002566
N      2.47655      8.33038      7.54753         0.045348     -0.039446      0.003193
N      8.32567      2.59952      7.56712        -0.036453      0.042282      0.002095
O      5.26187      2.85891      7.59175        -0.010274     -0.001297     -0.008039
O      5.54087      8.07103      7.56283         0.012809      0.003848     -0.003986
O      8.00431      5.65809      7.56567        -0.000962      0.008977     -0.002882
O      2.79824      5.27199      7.56387        -0.000670     -0.014728     -0.004689
Pd      6.82064      4.07472      7.57923         0.004672     -0.005521     -0.005845
Pd      3.98231      6.85500      7.56275        -0.008551      0.006558     -0.004846
Pd      0.02556     10.73150      7.53914        -0.000539     -0.000178      0.001336
