152
# total energy = -1060.15349245 eVH     10.35389      5.87395      7.64558        -0.314752      0.101168      1.086946
H     10.62451     15.10445      7.64558         0.083835     -0.069807      0.894851
H     10.62451      5.87395     13.33282        -0.271175      0.073450     -0.784949
H     10.35389     15.10445     13.33282         0.095995     -0.303012     -0.824539
H      7.64558     10.35389      5.87395         0.894775     -0.203501      0.206624
H      7.64558     10.62451     15.10445         0.314916     -0.027384     -0.061072
H     13.33282     10.62451      5.87395        -0.885944      0.219636      0.221736
H     13.33282     10.35389     15.10445        -0.281692     -0.029900     -0.060307
H      5.87395      7.64558     10.35389         0.092458      0.422844     -0.010966
H     15.10445      7.64558     10.62451        -0.042237      0.437065     -0.031645
H      5.87395     13.33282     10.62451        -0.017457     -0.969923      0.078191
H     15.10445     13.33282     10.35389        -0.084635     -0.328120      0.001293
H      5.87395     10.35389      7.64558         0.317616      0.061955      0.371222
H     15.10445     10.62451      7.64558        -0.119733     -0.158323      0.667714
H      5.87395     10.62451     13.33282        -0.062976      0.453013     -0.602646
H     15.10445     10.35389     13.33282         0.230321     -0.640819     -0.879511
H     10.35389      7.64558      5.87395        -0.021152      0.499772      0.345147
H     10.62451      7.64558     15.10445         0.328254      0.784072     -0.005871
H     10.62451     13.33282      5.87395         0.151099     -0.567321      0.201930
H     10.35389     13.33282     15.10445         0.032824     -0.288198     -0.165909
H      7.64558      5.87395     10.35389         0.369942      0.113012      0.063778
H      7.64558     15.10445     10.62451         0.389240     -0.128081      0.178343
H     13.33282      5.87395     10.62451        -0.307012      0.137438     -0.014265
H     13.33282     15.10445     10.35389        -0.659727     -0.106895      0.136593
H     12.45634     12.45634     19.01126         0.259030      0.272441     -0.226036
H     19.01126     19.01126     19.01126        -0.248148     -0.267507     -0.244547
H     19.01126     12.45634     12.45634        -0.249143      0.271852      0.237063
H     12.45634     19.01126     12.45634         0.290060     -0.235105      0.235455
C     10.35284      5.61067      6.59456         0.402018     -0.418642     -1.357339
C     10.62556     15.36773      6.59456        -0.171534      0.608201     -0.660103
C     10.62556      5.61067     14.38384         0.366019     -0.273294      0.780477
C     10.35284     15.36773     14.38384        -0.205860      0.219660      1.028423
C      6.59456     10.35284      5.61067        -1.396374      0.032554     -0.228840
C      6.59456     10.62556     15.36773        -0.667519      0.066427      0.356646
C     14.38384     10.62556      5.61067         1.310009     -0.186193     -0.630320
C     14.38384     10.35284     15.36773         0.317666     -0.132373      0.353758
C      5.61067      6.59456     10.35284        -0.275206     -0.674507     -0.030510
C     15.36773      6.59456     10.62556         0.409938     -0.857989      0.029108
C      5.61067     14.38384     10.62556        -0.150803      1.200943     -0.218117
C     15.36773     14.38384     10.35284         0.503253      0.706006     -0.036790
C      5.61067     10.35284      6.59456        -0.371317     -0.102953     -0.774273
C     15.36773     10.62556      6.59456         0.402826      0.105811     -0.681771
C      5.61067     10.62556     14.38384        -0.406190     -0.163841      1.219058
C     15.36773     10.35284     14.38384         0.231337      0.227293      1.418868
C     10.35284      6.59456      5.61067        -0.068853     -0.747064     -0.547490
C     10.62556      6.59456     15.36773        -0.140188     -0.975346      0.374987
C     10.62556     14.38384      5.61067        -0.493350      0.383572     -0.738738
C     10.35284     14.38384     15.36773        -0.173691      0.736134      0.493955
C      6.59456      5.61067     10.35284        -0.563509     -0.338528      0.003363
C      6.59456     15.36773     10.62556        -0.367224      0.446054      0.064904
C     14.38384      5.61067     10.62556         0.434408     -0.310125      0.007886
C     14.38384     15.36773     10.35284         1.131085      0.485747     -0.078705
C     10.40319      3.19606      7.29314        -0.007722      0.785419     -0.336726
C     10.35913      4.25547      6.23373         0.023796     -0.378572      0.291457
C      0.08601      7.29314      7.29314        -0.018259     -0.379320     -0.504663
C      0.13007      6.23373      6.23373        -0.046908      0.878245      0.092053
C      0.08601      3.19606      3.19606        -0.006700      0.696178      0.259497
C      0.13007      4.25547      4.25547         0.046056     -0.266355     -0.547393
C     10.40319      7.29314      3.19606        -0.064205     -1.115448      0.622716
C     10.35913      6.23373      4.25547        -0.046912      0.347894     -0.203355
C      7.29314     10.40319      3.19606        -1.093104     -0.055000      0.200653
C      6.23373     10.35913      4.25547         0.380666      0.101956     -0.522884
C      7.29314      0.08601      7.29314        -0.477603      0.029197     -0.442240
C      6.23373      0.13007      6.23373         0.180118      0.121308      0.120314
C      3.19606      0.08601      3.19606         0.703050      0.023401      0.169435
C      4.25547      0.13007      4.25547        -0.172427     -0.050681     -0.366205
C      3.19606     10.40319      7.29314         0.373298     -0.026790     -0.950072
C      4.25547     10.35913      6.23373        -0.129220     -0.054268      0.114550
C      3.19606      7.29314     10.40319         0.615412     -0.398096      0.002434
C      4.25547      6.23373     10.35913        -0.115217      0.178207      0.011402
C      7.29314      7.29314      0.08601        -0.428029     -0.294015     -0.014950
C      6.23373      6.23373      0.13007         0.148300      0.154519     -0.061450
C      3.19606      3.19606      0.08601         0.292672      0.491752     -0.024504
C      4.25547      4.25547      0.13007        -0.401650     -0.239561     -0.030713
C      7.29314      3.19606     10.40319        -0.282275      0.593892     -0.009671
C      6.23373      4.25547     10.35913         0.016527     -0.092658      0.015443
O     10.43466      3.58206      8.50569        -0.026248      0.072793      0.301895
O     10.54374     17.39634      8.50569         0.063856     -0.123550      0.591689
O     10.54374      3.58206     12.47271         0.028929      0.101196     -0.397119
O     10.43466     17.39634     12.47271         0.094655     -0.062357     -0.434645
O      8.50569     10.43466      3.58206         0.735037     -0.073052      0.017402
O      8.50569     10.54374     17.39634         0.535008      0.062517     -0.103193
O     12.47271     10.54374      3.58206        -0.657213      0.112348      0.211690
O     12.47271     10.43466     17.39634        -0.282688      0.005082      0.035337
O      3.58206      8.50569     10.43466         0.033803      0.443975     -0.063686
O     17.39634      8.50569     10.54374        -0.054681      0.446313      0.056169
O      3.58206     12.47271     10.54374         0.104489     -0.587669      0.003450
O     17.39634     12.47271     10.43466        -0.181833     -0.739831     -0.048673
O      3.58206     10.43466      8.50569         0.208796     -0.060970      0.805275
O     17.39634     10.54374      8.50569        -0.072730      0.070892      0.490327
O      3.58206     10.54374     12.47271        -0.004395     -0.004794     -0.260759
O     17.39634     10.43466     12.47271         0.034763     -0.009864     -0.231315
O     10.43466      8.50569      3.58206        -0.107386      0.532580     -0.100566
O     10.54374      8.50569     17.39634         0.059977      0.510761     -0.084082
O     10.54374     12.47271      3.58206         0.102908     -0.638651      0.129562
O     10.43466     12.47271     17.39634        -0.064822     -0.696511     -0.279989
O      8.50569      3.58206     10.43466         0.395877      0.023129     -0.046322
O      8.50569     17.39634     10.54374         0.639169     -0.154216      0.045999
O     12.47271      3.58206     10.54374        -0.515574      0.121146      0.028257
O     12.47271     17.39634     10.43466        -0.624164     -0.124234      0.041205
O     11.90042     11.90042     19.56718        -0.278036     -0.303635      0.222300
O     19.56718     19.56718     19.56718         0.309186      0.322374      0.298021
O     19.56718     11.90042     11.90042         0.283296     -0.325162     -0.235262
O     11.90042     19.56718     11.90042        -0.314177      0.229367     -0.201055
O      9.45224      1.03696      9.45224        -0.075362      0.088130     -0.078800
O      1.03696      9.45224      9.45224         0.101804     -0.109199     -0.060994
O      1.03696      1.03696      1.03696         0.079084      0.054147      0.098474
O      9.45224      9.45224      1.03696        -0.058926     -0.125153      0.136660
Zr     10.48920      2.52580     10.48920         0.043050     -0.094281      0.122081
Zr     10.48920     18.45260     10.48920        -0.181834      0.247263     -0.360833
Zr     10.48920     10.48920      2.52580         0.112369      0.357480     -0.346255
Zr     10.48920     10.48920     18.45260        -0.080857     -0.261196      0.235338
Zr      2.52580     10.48920     10.48920        -0.241410      0.130163      0.245148
Zr     18.45260     10.48920     10.48920         0.195750     -0.137371     -0.021747
Pd      9.35993     14.30053      9.31123         0.005955      0.030397     -0.022711
Pd      8.59286     13.64634     13.04237         0.004332     -0.032630      0.004049
Pd     12.02403     14.40288      8.74523         0.004671     -0.011886      0.011349
Pd     12.75560     12.87900     10.68571        -0.024931     -0.015016      0.037903
Pd     12.11948      7.19100     12.67585         0.000175      0.003279     -0.005544
Pd     11.15597     14.90455     11.45156        -0.019550      0.021178     -0.015760
Pd     10.03573     12.55418     11.08446        -0.047342      0.026054     -0.018091
Pd     13.47945     12.15353      7.98416         0.005785      0.004515      0.010808
Pd     11.48008     11.54362      6.10805         0.005243      0.009644     -0.005996
Pd      7.94172      8.37820      7.52354        -0.004545     -0.023511     -0.008230
Pd      8.71926     11.75714      6.84460        -0.002679     -0.000619     -0.021358
Pd     10.32069      9.45220      8.15143        -0.019018      0.002837      0.012795
Pd      8.49612     14.46402      6.78976        -0.007394      0.003046     -0.013288
Pd     12.39537      9.01897      6.56834        -0.006139      0.024360      0.028565
Pd      9.71751      9.61001      5.57364         0.002971      0.007127      0.002705
Pd      6.81907      9.45436     12.14152         0.021511      0.020747      0.005572
Pd     12.17905      6.74507      7.95405         0.007623     -0.003628     -0.000888
Pd      5.91344     10.48348      9.69470        -0.017202     -0.014293     -0.000497
Pd      7.55037      7.23964     13.40804         0.012303      0.004447     -0.009175
Ir     11.73270      9.77524     13.06804         0.049416     -0.037193     -0.033931
Ir     13.55085      9.05491     11.47501        -0.026333      0.039327      0.021168
Ir      9.42457      8.86856     14.00917        -0.032798     -0.115112      0.044502
Ir     10.50694     11.01343     14.89269         0.021480     -0.011200      0.118995
Ir      7.26953     12.01600     11.33821         0.060103     -0.027178      0.094844
Ir     14.64921     10.91310     10.15227        -0.035716      0.016029      0.044477
Ir     12.15975     10.57388      9.67970         0.039659     -0.023216     -0.009905
Ir      8.75397     11.00154     12.99353        -0.102147      0.155441     -0.121886
Ir     10.10461      9.91762     11.17355        -0.005557     -0.008466     -0.056692
Ir     13.73616     11.41730     12.49255        -0.064661      0.002626      0.042544
Ir     11.58505     12.35144     13.09054        -0.062508     -0.031806      0.005681
Ir      8.49648     11.09882      9.33406         0.031744     -0.071079      0.014123
Ir     11.59177      8.02737     10.14407         0.006268      0.004321      0.016710
Ir      7.21824     13.03046      8.65632        -0.017480      0.052229     -0.002496
Ir      9.54707      6.96299      9.23880         0.012846     -0.005787      0.002227
Ir      8.05110      8.76229     10.05852         0.007300      0.045085     -0.001974
Ir     10.71910     12.12241      8.50150         0.003961      0.012712     -0.005776
Ir      9.51316      7.57215     11.75614         0.009036      0.012058     -0.012467
Ir     13.66538      8.80088      8.84112         0.012973      0.022631      0.038475
