152
# total energy = -1109.96089404 eVH     10.35389      5.87395      7.64558        -0.383986     -0.495651      1.225241
H     10.62451     15.10445      7.64558         0.375831      0.073875      0.910637
H     10.62451      5.87395     13.33282        -0.139808     -1.188150     -1.679401
H     10.35389     15.10445     13.33282        -0.610186      0.453566     -0.493267
H      7.64558     10.35389      5.87395         0.483831     -0.537092      0.001807
H      7.64558     10.62451     15.10445         0.330933     -0.281905      0.061791
H     13.33282     10.62451      5.87395        -0.361332      0.348602      0.013798
H     13.33282     10.35389     15.10445        -0.459065      0.289745      0.113912
H      5.87395      7.64558     10.35389         0.057697      0.370634      0.034277
H     15.10445      7.64558     10.62451         0.335273      0.366904      0.142798
H      5.87395     13.33282     10.62451        -0.290097     -0.415122      0.407669
H     15.10445     13.33282     10.35389         0.051426     -0.357907     -0.416172
H      5.87395     10.35389      7.64558        -0.118831     -0.305722      1.588285
H     15.10445     10.62451      7.64558         0.116596      0.098186      0.948863
H      5.87395     10.62451     13.33282        -0.096869     -0.300514     -1.118518
H     15.10445     10.35389     13.33282         0.343777      0.545823     -1.223522
H     10.35389      7.64558      5.87395        -0.454841      0.568814     -0.338789
H     10.62451      7.64558     15.10445        -0.042497      0.741740      0.303507
H     10.62451     13.33282      5.87395         0.882512     -1.337796     -0.326700
H     10.35389     13.33282     15.10445         0.287371     -0.508792      0.000229
H      7.64558      5.87395     10.35389         0.935127      0.106165     -0.129975
H      7.64558     15.10445     10.62451         2.071150      0.797459      0.264339
H     13.33282      5.87395     10.62451        -2.369641     -0.926860      0.138396
H     13.33282     15.10445     10.35389        -0.848553     -0.042551     -0.251980
H     12.45634     12.45634     19.01126         0.269600      0.258336     -0.231505
H     19.01126     19.01126     19.01126        -0.267616     -0.251237     -0.239289
H     19.01126     12.45634     12.45634        -0.278456      0.289718      0.185332
H     12.45634     19.01126     12.45634         0.257645     -0.251360      0.237959
C     10.35284      5.61067      6.59456         0.162689     -0.371371     -1.665190
C     10.62556     15.36773      6.59456         0.151565      0.620198     -0.840777
C     10.62556      5.61067     14.38384         0.044470     -0.236488      2.114589
C     10.35284     15.36773     14.38384         0.158526      0.174079      1.838413
C      6.59456     10.35284      5.61067        -1.178685     -0.185418     -0.966618
C      6.59456     10.62556     15.36773        -0.607990     -0.139678      0.658862
C     14.38384     10.62556      5.61067         0.687564     -0.126680     -0.754237
C     14.38384     10.35284     15.36773         1.107981      0.140832      0.910983
C      5.61067      6.59456     10.35284        -0.885487     -0.678873     -0.131722
C     15.36773      6.59456     10.62556         1.901399     -0.003861     -0.014330
C      5.61067     14.38384     10.62556        -1.511773      0.180418      0.009527
C     15.36773     14.38384     10.35284         0.485157      0.208035      0.004837
C      5.61067     10.35284      6.59456        -0.345697      0.300334     -1.748713
C     15.36773     10.62556      6.59456         0.306322      0.026246     -0.906633
C      5.61067     10.62556     14.38384        -0.383016      0.245951      1.510553
C     15.36773     10.35284     14.38384         0.150064     -0.350362      1.705619
C     10.35284      6.59456      5.61067        -0.249168     -1.317941     -1.020739
C     10.62556      6.59456     15.36773        -0.055165     -1.105483      1.199836
C     10.62556     14.38384      5.61067        -0.458909      2.057494     -0.692976
C     10.35284     14.38384     15.36773        -0.253105      1.596077      0.369695
C      6.59456      5.61067     10.35284        -1.028836     -0.316632      0.067079
C      6.59456     15.36773     10.62556        -1.533350      0.281115     -0.354152
C     14.38384      5.61067     10.62556         1.326977     -0.386424     -0.127035
C     14.38384     15.36773     10.35284         0.362255      0.237633      0.056479
C     10.40319      3.19606      7.29314         0.024380      0.299994     -0.125480
C     10.35913      4.25547      6.23373         0.109538     -0.405408      0.228845
C      0.08601      7.29314      7.29314        -0.052944     -0.363648     -0.439178
C      0.13007      6.23373      6.23373        -0.151073      0.837788      0.051734
C      0.08601      3.19606      3.19606        -0.121489      1.537140      0.169252
C      0.13007      4.25547      4.25547        -0.154474     -0.410866     -1.365231
C     10.40319      7.29314      3.19606         0.036861     -0.460569      0.088871
C     10.35913      6.23373      4.25547         0.221852      0.176606     -0.386024
C      7.29314     10.40319      3.19606        -1.741845      0.023267      0.241790
C      6.23373     10.35913      4.25547         0.514510      0.041862     -0.519665
C      7.29314      0.08601      7.29314        -0.372155      0.013637     -0.268015
C      6.23373      0.13007      6.23373         0.354246      0.021186      0.352244
C      3.19606      0.08601      3.19606         0.621495      0.012867      0.310854
C      4.25547      0.13007      4.25547        -0.416292      0.018357     -0.399419
C      3.19606     10.40319      7.29314         0.384785      0.048565     -0.405988
C      4.25547     10.35913      6.23373        -0.668996      0.089802      0.423373
C      3.19606      7.29314     10.40319         0.365735     -0.331993     -0.002689
C      4.25547      6.23373     10.35913         0.006849      0.665983      0.107646
C      7.29314      7.29314      0.08601        -0.682535     -0.449634     -0.029045
C      6.23373      6.23373      0.13007         0.268823      1.294622     -0.003678
C      3.19606      3.19606      0.08601         0.777245      0.429174     -0.011362
C      4.25547      4.25547      0.13007        -0.483859     -1.411186     -0.084999
C      7.29314      3.19606     10.40319        -0.357128      0.313822      0.003970
C      6.23373      4.25547     10.35913         0.575153     -0.193151      0.236142
O     10.43466      3.58206      8.50569        -0.045174      0.192180      0.286063
O     10.54374     17.39634      8.50569         0.044046     -0.214449      0.480867
O     10.54374      3.58206     12.47271         0.096684     -0.017750     -0.079411
O     10.43466     17.39634     12.47271        -0.037626     -0.102009     -0.232359
O      8.50569     10.43466      3.58206         0.920103      0.185006      0.398125
O      8.50569     10.54374     17.39634         0.551541      0.071756     -0.209634
O     12.47271     10.54374      3.58206        -0.499092     -0.012986      0.181380
O     12.47271     10.43466     17.39634        -0.522763     -0.070013     -0.188614
O      3.58206      8.50569     10.43466         0.164943      0.512203     -0.045522
O     17.39634      8.50569     10.54374        -0.184940      0.662081      0.045770
O      3.58206     12.47271     10.54374         0.150773     -0.614739      0.027719
O     17.39634     12.47271     10.43466        -0.175419     -0.522593     -0.013519
O      3.58206     10.43466      8.50569         0.219297     -0.083297      0.439716
O     17.39634     10.54374      8.50569        -0.157913      0.031094      0.427785
O      3.58206     10.54374     12.47271         0.149500     -0.001758     -0.390580
O     17.39634     10.43466     12.47271         0.081866     -0.063329     -0.052288
O     10.43466      8.50569      3.58206        -0.001707      0.355567      0.184085
O     10.54374      8.50569     17.39634         0.074872      0.469645     -0.202519
O     10.54374     12.47271      3.58206        -0.225435     -0.915113      0.341955
O     10.43466     12.47271     17.39634        -0.077866     -0.435609     -0.236626
O      8.50569      3.58206     10.43466         0.507447      0.190213     -0.018266
O      8.50569     17.39634     10.54374         0.612668     -0.197815      0.036991
O     12.47271      3.58206     10.54374        -0.709209      0.277134      0.042874
O     12.47271     17.39634     10.43466        -0.480013     -0.184378     -0.039460
O     11.90042     11.90042     19.56718        -0.332090     -0.305534      0.262328
O     19.56718     19.56718     19.56718         0.331000      0.305288      0.286680
O     19.56718     11.90042     11.90042         0.275130     -0.294320     -0.131062
O     11.90042     19.56718     11.90042        -0.317943      0.296490     -0.238999
O      9.45224      1.03696      9.45224        -0.050776      0.070476     -0.039063
O      1.03696      9.45224      9.45224         0.040066     -0.067725     -0.069197
O      1.03696      1.03696      1.03696         0.041175      0.117483      0.124095
O      9.45224      9.45224      1.03696        -0.113738     -0.065884      0.138454
Zr     10.48920      2.52580     10.48920         0.093705     -0.148944     -0.162502
Zr     10.48920     18.45260     10.48920        -0.044868      0.166473     -0.031187
Zr     10.48920     10.48920      2.52580         0.431493     -0.282130     -0.248202
Zr     10.48920     10.48920     18.45260        -0.027451     -0.062207      0.195218
Zr      2.52580     10.48920     10.48920        -0.061699      0.125493     -0.027148
Zr     18.45260     10.48920     10.48920         0.119821     -0.112251     -0.306905
Ir     12.01553     12.42446     10.44891         0.020670     -0.035006     -0.064722
Ir     10.79348      7.35601     10.42325         0.123244      0.002820     -0.031160
Ir      8.46034      7.47287     11.67607         0.082901     -0.004133     -0.013396
Ir      7.35247     11.77314      7.70321         0.064672     -0.023232     -0.047540
Ir     11.48192     12.07064      7.14427         0.008195     -0.018216     -0.026776
Ir     13.39650      8.83377      7.58342         0.154802      0.057199     -0.026348
Ir     12.47352     13.89590      8.42934         0.055533      0.010906      0.002511
Ir      9.57595     11.30679      5.58734         0.034029     -0.003907      0.068201
Ir      9.05238     13.49334      7.08342         0.031650      0.053494     -0.030187
Ir      9.08988      9.70423      7.60216         0.098596      0.000954     -0.040186
Ir     12.99179      7.11651     11.90785         0.050864     -0.069589      0.021992
Ir     13.13655      6.92430      9.15080         0.118800      0.046324     -0.071003
Ir     10.72043      7.58231     12.93881         0.074146      0.026115     -0.007307
Ir     13.51012     11.43830      8.70071         0.061920      0.026874      0.013607
Ir     11.30232      9.66503      6.27242         0.021327      0.036151     -0.013559
Ir      6.85768      9.39293      9.06036         0.065298     -0.050127     -0.048758
Ir     14.10914     11.38320     11.48127        -0.036009     -0.078116      0.055085
Ir     11.44045      9.88531      8.95667        -0.010543      0.022261     -0.040255
Ir      9.17250      9.58175     10.29286         0.079941      0.021788     -0.018100
Ir     13.63126      9.28389     10.16403         0.044660     -0.026559      0.012466
Ir     13.62774      9.25586     12.84599         0.003646     -0.098440      0.016700
Ir     11.43765      9.66917     11.59408         0.073402      0.040892      0.014175
Ir      9.78860     11.82437      9.02047         0.056448     -0.061904     -0.016636
Ir      8.62582      7.50703      8.92904         0.123249     -0.045594     -0.016761
Ir     11.03885      7.63396      7.91440         0.093160     -0.011503      0.018994
Ir      9.03528      9.56729     13.04770         0.052622     -0.013717     -0.015962
Ir      7.56152     14.04499      9.00322        -0.016442     -0.003715      0.018754
Ir     10.95157     14.01885     12.02896        -0.033461      0.112363     -0.019166
Ir     10.14427     14.21852      9.57728         0.017398      0.037840     -0.010161
Ir      9.72845     11.71263     11.73503         0.038731      0.021729     -0.037010
Ir      7.49119     11.74535     10.27633         0.004048     -0.012295     -0.036398
Ir      8.42065     13.86367     11.65534         0.019429      0.002537     -0.025471
Ir      7.49514     11.80263     12.93571        -0.018829     -0.028837     -0.030185
Ir      9.79512     11.66656     14.32372        -0.012418      0.023028      0.006948
Ir     13.50749     13.80128     12.15183         0.074782      0.004237     -0.005779
Ir     12.07068     11.89461     13.03809        -0.056628     -0.009057      0.044936
Ir     11.43724      9.74256     14.24450         0.048020      0.060267     -0.035995
Ir      6.89691      9.61021     11.60081         0.058274     -0.023903     -0.029608
