152
# total energy = -1060.08589321 eVH     10.35389      5.87395      7.64558        -0.280733      0.043000      1.127891
H     10.62451     15.10445      7.64558         0.080827     -0.086549      0.928386
H     10.62451      5.87395     13.33282        -0.258360      0.076087     -0.786564
H     10.35389     15.10445     13.33282         0.093996     -0.303200     -0.865532
H      7.64558     10.35389      5.87395         0.931371     -0.136275      0.188201
H      7.64558     10.62451     15.10445         0.328895     -0.036491     -0.072030
H     13.33282     10.62451      5.87395        -0.860650      0.194424      0.205904
H     13.33282     10.35389     15.10445        -0.278079     -0.014288     -0.068327
H      5.87395      7.64558     10.35389         0.088352      0.417024     -0.009838
H     15.10445      7.64558     10.62451        -0.003902      0.490336     -0.032865
H      5.87395     13.33282     10.62451        -0.014801     -0.960515      0.081348
H     15.10445     13.33282     10.35389        -0.083872     -0.319517      0.003814
H      5.87395     10.35389      7.64558         0.285224      0.110553      0.404152
H     15.10445     10.62451      7.64558        -0.123217     -0.172988      0.666389
H      5.87395     10.62451     13.33282        -0.082663      0.463004     -0.617533
H     15.10445     10.35389     13.33282         0.243183     -0.620753     -0.831804
H     10.35389      7.64558      5.87395        -0.040632      0.486225      0.335931
H     10.62451      7.64558     15.10445         0.270311      0.786424     -0.025915
H     10.62451     13.33282      5.87395         0.127885     -0.574303      0.208098
H     10.35389     13.33282     15.10445         0.038294     -0.287561     -0.147191
H      7.64558      5.87395     10.35389         0.347863      0.101578      0.033064
H      7.64558     15.10445     10.62451         0.379512     -0.118988      0.168260
H     13.33282      5.87395     10.62451        -0.315000      0.131008     -0.028557
H     13.33282     15.10445     10.35389        -0.654038     -0.126298      0.146975
H     12.45634     12.45634     19.01126         0.255973      0.271348     -0.228408
H     19.01126     19.01126     19.01126        -0.246531     -0.268064     -0.245486
H     19.01126     12.45634     12.45634        -0.250827      0.269901      0.235540
H     12.45634     19.01126     12.45634         0.290327     -0.235600      0.234790
C     10.35284      5.61067      6.59456         0.400406     -0.417620     -1.424921
C     10.62556     15.36773      6.59456        -0.153923      0.590742     -0.647998
C     10.62556      5.61067     14.38384         0.381474     -0.337518      0.826404
C     10.35284     15.36773     14.38384        -0.223231      0.221820      1.076708
C      6.59456     10.35284      5.61067        -1.377820      0.021373     -0.230360
C      6.59456     10.62556     15.36773        -0.647003      0.063512      0.365475
C     14.38384     10.62556      5.61067         1.305619     -0.168341     -0.633435
C     14.38384     10.35284     15.36773         0.353806     -0.124574      0.356287
C      5.61067      6.59456     10.35284        -0.286505     -0.653283     -0.021879
C     15.36773      6.59456     10.62556         0.419635     -0.957477      0.034174
C      5.61067     14.38384     10.62556        -0.136840      1.164523     -0.185878
C     15.36773     14.38384     10.35284         0.470764      0.654520     -0.027156
C      5.61067     10.35284      6.59456        -0.373376     -0.099715     -0.733730
C     15.36773     10.62556      6.59456         0.406429      0.117254     -0.731877
C      5.61067     10.62556     14.38384        -0.386997     -0.171327      1.231914
C     15.36773     10.35284     14.38384         0.264753      0.191288      1.459992
C     10.35284      6.59456      5.61067        -0.055511     -0.723888     -0.595718
C     10.62556      6.59456     15.36773        -0.116140     -0.906581      0.352218
C     10.62556     14.38384      5.61067        -0.474593      0.405435     -0.714579
C     10.35284     14.38384     15.36773        -0.160216      0.624327      0.425522
C      6.59456      5.61067     10.35284        -0.517283     -0.334003      0.023773
C      6.59456     15.36773     10.62556        -0.372577      0.448128      0.058797
C     14.38384      5.61067     10.62556         0.446416     -0.367243      0.001651
C     14.38384     15.36773     10.35284         1.121148      0.499031     -0.072903
C     10.40319      3.19606      7.29314        -0.001747      0.689498     -0.337178
C     10.35913      4.25547      6.23373         0.010981     -0.423449      0.289367
C      0.08601      7.29314      7.29314        -0.014820     -0.366776     -0.505501
C      0.13007      6.23373      6.23373        -0.067850      0.860820      0.067454
C      0.08601      3.19606      3.19606        -0.003565      0.682376      0.265782
C      0.13007      4.25547      4.25547         0.033015     -0.269019     -0.543653
C     10.40319      7.29314      3.19606        -0.066947     -1.149934      0.582908
C     10.35913      6.23373      4.25547        -0.038607      0.363093     -0.197353
C      7.29314     10.40319      3.19606        -1.083389     -0.056780      0.194226
C      6.23373     10.35913      4.25547         0.366324      0.086201     -0.540615
C      7.29314      0.08601      7.29314        -0.434003      0.033247     -0.519639
C      6.23373      0.13007      6.23373         0.184005      0.127921      0.128131
C      3.19606      0.08601      3.19606         0.693128      0.024693      0.167370
C      4.25547      0.13007      4.25547        -0.173385     -0.050864     -0.355319
C      3.19606     10.40319      7.29314         0.384415     -0.025816     -0.897447
C      4.25547     10.35913      6.23373        -0.152174     -0.076562      0.100088
C      3.19606      7.29314     10.40319         0.606100     -0.397744      0.002779
C      4.25547      6.23373     10.35913        -0.112935      0.182837      0.001651
C      7.29314      7.29314      0.08601        -0.412781     -0.314734     -0.015060
C      6.23373      6.23373      0.13007         0.179129      0.186870     -0.064693
C      3.19606      3.19606      0.08601         0.289500      0.480242     -0.024204
C      4.25547      4.25547      0.13007        -0.404549     -0.231141     -0.035342
C      7.29314      3.19606     10.40319        -0.278279      0.592513     -0.010759
C      6.23373      4.25547     10.35913         0.005434     -0.109341      0.019913
O     10.43466      3.58206      8.50569        -0.027921      0.091927      0.319135
O     10.54374     17.39634      8.50569         0.062478     -0.129593      0.594477
O     10.54374      3.58206     12.47271         0.027974      0.106240     -0.393128
O     10.43466     17.39634     12.47271         0.090552     -0.048037     -0.389630
O      8.50569     10.43466      3.58206         0.710766     -0.062656      0.012803
O      8.50569     10.54374     17.39634         0.483365      0.057565     -0.080585
O     12.47271     10.54374      3.58206        -0.648160      0.115939      0.204730
O     12.47271     10.43466     17.39634        -0.283703     -0.003236      0.023023
O      3.58206      8.50569     10.43466         0.039712      0.459817     -0.067842
O     17.39634      8.50569     10.54374        -0.058517      0.452147      0.056748
O      3.58206     12.47271     10.54374         0.113768     -0.583447      0.001910
O     17.39634     12.47271     10.43466        -0.172543     -0.742095     -0.056048
O      3.58206     10.43466      8.50569         0.211673     -0.061638      0.787974
O     17.39634     10.54374      8.50569        -0.099239      0.076013      0.555133
O      3.58206     10.54374     12.47271        -0.000560     -0.003135     -0.268293
O     17.39634     10.43466     12.47271         0.038045     -0.012325     -0.226220
O     10.43466      8.50569      3.58206        -0.104994      0.567752     -0.113233
O     10.54374      8.50569     17.39634         0.067047      0.505073     -0.088331
O     10.54374     12.47271      3.58206         0.104754     -0.625994      0.133581
O     10.43466     12.47271     17.39634        -0.060956     -0.656418     -0.255901
O      8.50569      3.58206     10.43466         0.395276      0.026098     -0.036898
O      8.50569     17.39634     10.54374         0.631948     -0.155107      0.047764
O     12.47271      3.58206     10.54374        -0.508817      0.126508      0.035029
O     12.47271     17.39634     10.43466        -0.622238     -0.132096      0.040357
O     11.90042     11.90042     19.56718        -0.274353     -0.307354      0.232514
O     19.56718     19.56718     19.56718         0.304008      0.319028      0.299490
O     19.56718     11.90042     11.90042         0.284866     -0.324918     -0.232504
O     11.90042     19.56718     11.90042        -0.316107      0.229302     -0.202817
O      9.45224      1.03696      9.45224        -0.082788      0.085062     -0.069720
O      1.03696      9.45224      9.45224         0.102239     -0.115958     -0.048791
O      1.03696      1.03696      1.03696         0.083869      0.055755      0.097053
O      9.45224      9.45224      1.03696        -0.060679     -0.131834      0.131034
Zr     10.48920      2.52580     10.48920         0.032518     -0.089017      0.083745
Zr     10.48920     18.45260     10.48920        -0.173008      0.259739     -0.347127
Zr     10.48920     10.48920      2.52580         0.119242      0.355781     -0.346337
Zr     10.48920     10.48920     18.45260        -0.082983     -0.211478      0.193455
Zr      2.52580     10.48920     10.48920        -0.254136      0.129319      0.231944
Zr     18.45260     10.48920     10.48920         0.223776     -0.116929     -0.002137
Pd      9.39626     14.26667      9.35522        -0.000382      0.037383     -0.035609
Pd      8.61087     13.69072     12.99100        -0.013877     -0.016390      0.035285
Pd     12.03780     14.41437      8.73836         0.008977     -0.009339      0.004211
Pd     12.76861     12.82334     10.63108        -0.026971      0.011565      0.027928
Pd     12.14399      7.12025     12.61996        -0.006153      0.010804      0.004713
Pd     11.21085     14.83938     11.50017        -0.018709      0.030911     -0.025918
Pd     10.07597     12.50204     11.11546        -0.038288      0.050956     -0.039062
Pd     13.48397     12.13508      7.98029         0.010865      0.012902      0.004961
Pd     11.48055     11.55792      6.11289         0.007985      0.003177     -0.006128
Pd      7.86211      8.54874      7.54140         0.014538     -0.046184     -0.007582
Pd      8.73612     11.73262      6.88412        -0.008808      0.011561     -0.019750
Pd     10.30960      9.46721      8.14600        -0.009475     -0.005105      0.003193
Pd      8.50933     14.43777      6.84004        -0.012133      0.016027     -0.031762
Pd     12.36538      9.03330      6.58430         0.000452      0.004410      0.012048
Pd      9.74370      9.61031      5.55454        -0.000594      0.006354      0.002095
Pd      6.86054      9.45512     12.18369        -0.003377     -0.001231     -0.004581
Pd     12.20810      6.69311      7.87965        -0.001776      0.014075      0.018466
Pd      5.94826     10.46127      9.72331        -0.015893     -0.006455     -0.002531
Pd      7.57484      7.14477     13.27944        -0.002336      0.023758      0.050541
Ir     11.79281      9.70688     13.05853        -0.037110     -0.005618     -0.010296
Ir     13.57675      8.99672     11.44646        -0.024463      0.017799      0.015018
Ir      9.42648      8.82634     13.90436        -0.010993      0.027592      0.061507
Ir     10.55765     10.92922     14.87590        -0.022650     -0.016643      0.037899
Ir      7.28599     12.02406     11.36779        -0.019786     -0.008678     -0.009002
Ir     14.69082     10.84134     10.10152        -0.010998      0.032097      0.036454
Ir     12.19781     10.49243      9.65945         0.002485      0.006275     -0.014685
Ir      8.77855     11.02947     13.01321         0.030469     -0.032664     -0.004503
Ir     10.14106      9.86472     11.21156        -0.008370      0.030876     -0.035652
Ir     13.76193     11.36668     12.41670        -0.036987      0.006126      0.051830
Ir     11.64509     12.29969     13.10642        -0.079600     -0.011580     -0.000026
Ir      8.52816     11.07902      9.38068        -0.009448      0.006876     -0.026924
Ir     11.59665      7.97893     10.07561         0.007977      0.015281      0.015392
Ir      7.24089     13.00655      8.69826        -0.001031      0.029896     -0.002286
Ir      9.51854      7.00081      9.11818         0.006013     -0.006047      0.045602
Ir      8.06732      8.74963     10.09803        -0.006902      0.005430     -0.021470
Ir     10.75836     12.09802      8.53612        -0.011425      0.006550     -0.014905
Ir      9.56229      7.46218     11.67287        -0.012450      0.066839      0.038047
Ir     13.69620      8.70921      8.80577         0.000908      0.016558      0.017053
