26
# total energy = -177.58602855 eVH      0.08979      6.30211      7.50000        -0.024435      0.011868     -0.000000
H      2.97850      1.80381      7.50000        -0.032888      0.017686     -0.000000
H      5.45966      5.37161      7.50000         0.026316      0.030574      0.000000
H      8.38192     -2.58847      7.50000         0.024435     -0.011868     -0.000000
H      5.49321      1.90983      7.50000         0.032888     -0.017686     -0.000000
H      3.01205     -1.65796      7.50000        -0.026316     -0.030574     -0.000000
C      7.55012      2.58229      7.50000        -0.022181     -0.017109      0.000000
C      1.43433     -0.23558      7.50000        -0.029826     -0.027840     -0.000000
C      7.96153     -4.70055      7.50000         0.011784      0.002775     -0.000000
C      0.92159      1.13136      7.50000         0.022181      0.017109     -0.000000
C      7.03738      3.94922      7.50000         0.029826      0.027840     -0.000000
C      0.51018      8.41420      7.50000        -0.011784     -0.002775     -0.000000
C      7.58347     -3.32628      7.50000         0.021844      0.003589      0.000000
C      6.53318      1.57983      7.50000        -0.015989     -0.005700     -0.000000
C      2.79974     -0.58267      7.50000        -0.008224     -0.014864     -0.000000
C      0.88824      7.03992      7.50000        -0.021844     -0.003589     -0.000000
C      1.93853      2.13381      7.50000         0.015989      0.005700     -0.000000
C      5.67197      4.29632      7.50000         0.008224      0.014864      0.000000
O      6.38989     -2.81221      7.50000        -0.009143      0.014225      0.000000
O      6.73316      0.29799      7.50000        -0.039678     -0.006756      0.000000
O      3.89722      0.13142      7.50000         0.007435     -0.005693      0.000000
O      2.08182      6.52585      7.50000         0.009143     -0.014225     -0.000000
O      1.73855      3.41565      7.50000         0.039678      0.006756     -0.000000
O      4.57449      3.58223      7.50000        -0.007435      0.005693      0.000000
Ir      5.42586     -1.15776      7.50000         0.003213      0.016827     -0.000000
Ir      3.04585      4.87141      7.50000        -0.003213     -0.016827     -0.000000
