152
# total energy = -1110.21667114 eVH     10.35389      5.87395      7.64558        -0.362312     -0.299762      1.107171
H     10.62451     15.10445      7.64558         0.440987      0.091988      0.975670
H     10.62451      5.87395     13.33282        -0.234311     -0.946009     -1.558176
H     10.35389     15.10445     13.33282        -0.633651      0.331498     -0.411338
H      7.64558     10.35389      5.87395         0.507729     -0.581576     -0.043092
H      7.64558     10.62451     15.10445         0.329077     -0.258013      0.038142
H     13.33282     10.62451      5.87395        -0.448428      0.476665      0.006415
H     13.33282     10.35389     15.10445        -0.498042      0.360416      0.120798
H      5.87395      7.64558     10.35389         0.103023      0.418953      0.032819
H     15.10445      7.64558     10.62451         0.399349      0.488640      0.226440
H      5.87395     13.33282     10.62451        -0.255824     -0.409968      0.387152
H     15.10445     13.33282     10.35389         0.033724     -0.366583     -0.409512
H      5.87395     10.35389      7.64558        -0.067238     -0.279644      1.499968
H     15.10445     10.62451      7.64558         0.168797      0.212615      1.080284
H      5.87395     10.62451     13.33282        -0.093619     -0.312542     -1.072994
H     15.10445     10.35389     13.33282         0.303701      0.601679     -1.300457
H     10.35389      7.64558      5.87395        -0.497894      0.526949     -0.262680
H     10.62451      7.64558     15.10445        -0.085804      0.676538      0.260405
H     10.62451     13.33282      5.87395         0.915747     -1.419159     -0.334497
H     10.35389     13.33282     15.10445         0.319217     -0.530690     -0.029637
H      7.64558      5.87395     10.35389         0.829133      0.145524     -0.133523
H      7.64558     15.10445     10.62451         2.002604      0.852244      0.211054
H     13.33282      5.87395     10.62451        -2.547006     -0.995513     -0.308490
H     13.33282     15.10445     10.35389        -0.837136     -0.030696     -0.246513
H     12.45634     12.45634     19.01126         0.270978      0.256061     -0.230284
H     19.01126     19.01126     19.01126        -0.267518     -0.252533     -0.238444
H     19.01126     12.45634     12.45634        -0.280782      0.282457      0.189277
H     12.45634     19.01126     12.45634         0.257764     -0.252391      0.235966
C     10.35284      5.61067      6.59456         0.157141     -0.444115     -1.466366
C     10.62556     15.36773      6.59456         0.131164      0.721042     -0.884138
C     10.62556      5.61067     14.38384         0.098202     -0.324894      1.978525
C     10.35284     15.36773     14.38384         0.158546      0.331981      1.800615
C      6.59456     10.35284      5.61067        -1.145612     -0.141900     -0.896710
C      6.59456     10.62556     15.36773        -0.628646     -0.126436      0.672890
C     14.38384     10.62556      5.61067         0.772808     -0.132705     -0.848194
C     14.38384     10.35284     15.36773         1.133639      0.146726      0.967503
C      5.61067      6.59456     10.35284        -0.789716     -0.712050     -0.143306
C     15.36773      6.59456     10.62556         1.960071      0.000249     -0.123760
C      5.61067     14.38384     10.62556        -1.596007      0.082377     -0.047465
C     15.36773     14.38384     10.35284         0.445231      0.074774      0.050848
C      5.61067     10.35284      6.59456        -0.312554      0.235259     -1.517409
C     15.36773     10.62556      6.59456         0.282683     -0.068373     -0.943378
C      5.61067     10.62556     14.38384        -0.335520      0.293636      1.425204
C     15.36773     10.35284     14.38384         0.116450     -0.358666      1.673703
C     10.35284      6.59456      5.61067        -0.246471     -1.128956     -0.852131
C     10.62556      6.59456     15.36773        -0.058608     -0.963152      1.121057
C     10.62556     14.38384      5.61067        -0.433508      2.068734     -0.782784
C     10.35284     14.38384     15.36773        -0.298002      1.565816      0.400132
C      6.59456      5.61067     10.35284        -1.000690     -0.387123      0.069675
C      6.59456     15.36773     10.62556        -1.460291      0.318990     -0.339039
C     14.38384      5.61067     10.62556         1.307413     -0.718273      0.049164
C     14.38384     15.36773     10.35284         0.337595      0.278286      0.041792
C     10.40319      3.19606      7.29314         0.015397      0.296855     -0.107066
C     10.35913      4.25547      6.23373         0.126972     -0.451143      0.120643
C      0.08601      7.29314      7.29314        -0.054443     -0.324459     -0.433643
C      0.13007      6.23373      6.23373        -0.154932      0.812932      0.034883
C      0.08601      3.19606      3.19606        -0.114195      1.528746      0.168887
C      0.13007      4.25547      4.25547        -0.108421     -0.388160     -1.346770
C     10.40319      7.29314      3.19606         0.030185     -0.453216      0.116854
C     10.35913      6.23373      4.25547         0.248612      0.116332     -0.419921
C      7.29314     10.40319      3.19606        -1.673753      0.018371      0.283130
C      6.23373     10.35913      4.25547         0.584018      0.061399     -0.568057
C      7.29314      0.08601      7.29314        -0.383882      0.000137     -0.274160
C      6.23373      0.13007      6.23373         0.473929     -0.028244      0.322653
C      3.19606      0.08601      3.19606         0.666704     -0.003799      0.249674
C      4.25547      0.13007      4.25547        -0.387161     -0.025390     -0.437094
C      3.19606     10.40319      7.29314         0.393152      0.036184     -0.361561
C      4.25547     10.35913      6.23373        -0.688374      0.065915      0.403252
C      3.19606      7.29314     10.40319         0.339296     -0.271136     -0.006385
C      4.25547      6.23373     10.35913         0.041563      0.649857      0.101814
C      7.29314      7.29314      0.08601        -0.693815     -0.497439     -0.016946
C      6.23373      6.23373      0.13007         0.485770      1.217568     -0.058580
C      3.19606      3.19606      0.08601         0.796260      0.441173      0.009441
C      4.25547      4.25547      0.13007        -0.335236     -1.588941     -0.097062
C      7.29314      3.19606     10.40319        -0.344408      0.276691      0.000605
C      6.23373      4.25547     10.35913         0.578971     -0.092988      0.240452
O     10.43466      3.58206      8.50569        -0.044955      0.189186      0.272105
O     10.54374     17.39634      8.50569         0.042299     -0.225640      0.481274
O     10.54374      3.58206     12.47271         0.091354     -0.021632     -0.076530
O     10.43466     17.39634     12.47271        -0.031509     -0.116477     -0.254424
O      8.50569     10.43466      3.58206         0.934559      0.182274      0.395292
O      8.50569     10.54374     17.39634         0.555427      0.079139     -0.218531
O     12.47271     10.54374      3.58206        -0.497404     -0.030726      0.195924
O     12.47271     10.43466     17.39634        -0.535496     -0.069905     -0.196196
O      3.58206      8.50569     10.43466         0.169547      0.476545     -0.037331
O     17.39634      8.50569     10.54374        -0.203780      0.676909      0.041684
O      3.58206     12.47271     10.54374         0.151472     -0.628500      0.024679
O     17.39634     12.47271     10.43466        -0.180045     -0.489052     -0.018009
O      3.58206     10.43466      8.50569         0.215540     -0.068976      0.423386
O     17.39634     10.54374      8.50569        -0.163992      0.033249      0.416351
O      3.58206     10.54374     12.47271         0.134937      0.012527     -0.341816
O     17.39634     10.43466     12.47271         0.066316     -0.064854     -0.094752
O     10.43466      8.50569      3.58206         0.005028      0.329963      0.183618
O     10.54374      8.50569     17.39634         0.070650      0.444259     -0.192985
O     10.54374     12.47271      3.58206        -0.220720     -0.909199      0.352507
O     10.43466     12.47271     17.39634        -0.083131     -0.432731     -0.239046
O      8.50569      3.58206     10.43466         0.510364      0.197450     -0.016361
O      8.50569     17.39634     10.54374         0.629426     -0.190416      0.030726
O     12.47271      3.58206     10.54374        -0.719564      0.281103      0.040175
O     12.47271     17.39634     10.43466        -0.465466     -0.189987     -0.040694
O     11.90042     11.90042     19.56718        -0.338826     -0.303749      0.262451
O     19.56718     19.56718     19.56718         0.330170      0.305998      0.283420
O     19.56718     11.90042     11.90042         0.283792     -0.287501     -0.140425
O     11.90042     19.56718     11.90042        -0.314932      0.293275     -0.233439
O      9.45224      1.03696      9.45224        -0.048955      0.072533     -0.044570
O      1.03696      9.45224      9.45224         0.036274     -0.071203     -0.068954
O      1.03696      1.03696      1.03696         0.042712      0.120064      0.123998
O      9.45224      9.45224      1.03696        -0.106864     -0.073493      0.130541
Zr     10.48920      2.52580     10.48920         0.100022     -0.157638     -0.158352
Zr     10.48920     18.45260     10.48920        -0.065142      0.172484     -0.038819
Zr     10.48920     10.48920      2.52580         0.338279     -0.279340     -0.218688
Zr     10.48920     10.48920     18.45260        -0.011832     -0.070996      0.199377
Zr      2.52580     10.48920     10.48920        -0.052781      0.132355     -0.050851
Zr     18.45260     10.48920     10.48920         0.105048     -0.106558     -0.260905
Ir     12.04254     12.45111     10.44680         0.001901      0.028900      0.017035
Ir     10.96442      7.38541     10.39397         0.053054      0.014462     -0.014451
Ir      8.61168      7.45987     11.64113         0.054476     -0.016187     -0.013448
Ir      7.44207     11.74226      7.64411         0.008438     -0.026729      0.001107
Ir     11.54558     12.08949      7.13334         0.021277      0.002373     -0.003799
Ir     13.55747      8.90144      7.55982         0.061159      0.014306      0.009464
Ir     12.52423     13.91113      8.42342        -0.006325      0.018053     -0.003682
Ir      9.61872     11.30676      5.61011         0.045868     -0.019552     -0.027519
Ir      9.07455     13.52912      7.07386         0.004967     -0.033422     -0.001039
Ir      9.19913      9.67565      7.57819         0.039831      0.000725     -0.013951
Ir     13.09024      7.02618     11.94418         0.053068      0.023028      0.000095
Ir     13.33583      6.95453      9.10969         0.052721      0.020144      0.015044
Ir     10.84387      7.60723     12.91768         0.049328      0.000866     -0.016574
Ir     13.57725     11.47780      8.73431         0.017406      0.032533      0.013194
Ir     11.39529      9.67906      6.24345         0.046442     -0.007109      0.000618
Ir      6.99945      9.31410      8.99469         0.053388     -0.027451     -0.013706
Ir     14.04402     11.32657     11.59581         0.001095      0.039104      0.029624
Ir     11.53643      9.89561      8.92325         0.041806     -0.005999      0.003622
Ir      9.29531      9.57450     10.27227         0.053026     -0.008156      0.001436
Ir     13.71802      9.28705     10.16522         0.057093      0.034987      0.014260
Ir     13.69555      9.13211     12.90841         0.053580      0.009759      0.018597
Ir     11.56138      9.72242     11.58264         0.047728      0.016903      0.004243
Ir      9.84769     11.81310      8.99543         0.032946     -0.017193     -0.004571
Ir      8.81408      7.47558      8.90901         0.061129     -0.004972     -0.012235
Ir     11.24295      7.62961      7.87628         0.068724     -0.004536     -0.025000
Ir      9.13320      9.56504     13.02897         0.036494     -0.015402      0.001988
Ir      7.55402     14.01053      8.99024        -0.007805     -0.024794     -0.004563
Ir     10.96787     14.11223     11.96014        -0.014570      0.009786     -0.012482
Ir     10.15033     14.22012      9.53770        -0.008456     -0.010078     -0.007742
Ir      9.77447     11.73517     11.71701         0.023509      0.000053      0.007749
Ir      7.53745     11.70358     10.22210         0.024287     -0.028309     -0.006884
Ir      8.42527     13.84527     11.61177        -0.011875     -0.020046     -0.016136
Ir      7.50814     11.74312     12.86407         0.007730     -0.039713     -0.016270
Ir      9.76011     11.68255     14.33010        -0.003718     -0.005639      0.009687
Ir     13.54657     13.79003     12.16360        -0.013664      0.037160      0.022407
Ir     12.00835     12.00222     13.06221        -0.011183      0.039747      0.012155
Ir     11.50088      9.81042     14.22351         0.023632      0.008317      0.003034
Ir      7.01139      9.55562     11.54362         0.043876     -0.042276     -0.010530
