152
# total energy = -1110.37558455 eVH     10.35389      5.87395      7.64558        -0.352616     -0.142953      1.062447
H     10.62451     15.10445      7.64558         0.364036      0.083264      0.943876
H     10.62451      5.87395     13.33282        -0.319049     -0.701487     -1.390311
H     10.35389     15.10445     13.33282        -0.618660      0.406372     -0.327238
H      7.64558     10.35389      5.87395         0.541203     -0.531252     -0.086595
H      7.64558     10.62451     15.10445         0.371252     -0.241417      0.044574
H     13.33282     10.62451      5.87395        -0.547738      0.625434     -0.029492
H     13.33282     10.35389     15.10445        -0.527316      0.408468      0.161464
H      5.87395      7.64558     10.35389         0.146520      0.526874      0.034231
H     15.10445      7.64558     10.62451         0.430674      0.932659      0.262436
H      5.87395     13.33282     10.62451        -0.225696     -0.473328      0.362852
H     15.10445     13.33282     10.35389         0.029471     -0.305661     -0.386384
H      5.87395     10.35389      7.64558        -0.078122     -0.364778      1.438159
H     15.10445     10.62451      7.64558         0.211532      0.456222      1.289931
H      5.87395     10.62451     13.33282        -0.181919     -0.355936     -1.169522
H     15.10445     10.35389     13.33282         0.561935      0.916990     -1.518243
H     10.35389      7.64558      5.87395        -0.544586      0.502512     -0.183142
H     10.62451      7.64558     15.10445        -0.140163      0.510142      0.185477
H     10.62451     13.33282      5.87395         0.888772     -1.384370     -0.323226
H     10.35389     13.33282     15.10445         0.264414     -0.554661     -0.084887
H      7.64558      5.87395     10.35389         0.718082      0.173153     -0.151888
H      7.64558     15.10445     10.62451         1.981012      0.788013      0.207152
H     13.33282      5.87395     10.62451        -2.681195     -0.955047     -0.456657
H     13.33282     15.10445     10.35389        -0.875233     -0.047696     -0.251179
H     12.45634     12.45634     19.01126         0.271941      0.257815     -0.227350
H     19.01126     19.01126     19.01126        -0.266811     -0.255012     -0.238412
H     19.01126     12.45634     12.45634        -0.282887      0.281077      0.186751
H     12.45634     19.01126     12.45634         0.255988     -0.251448      0.235997
C     10.35284      5.61067      6.59456         0.087214     -0.501361     -1.237660
C     10.62556     15.36773      6.59456         0.168900      0.761679     -0.824822
C     10.62556      5.61067     14.38384         0.181466     -0.317907      1.808659
C     10.35284     15.36773     14.38384         0.107644      0.387164      1.805987
C      6.59456     10.35284      5.61067        -1.129025     -0.111109     -0.860408
C      6.59456     10.62556     15.36773        -0.691480     -0.102910      0.759249
C     14.38384     10.62556      5.61067         0.869076     -0.111494     -1.001139
C     14.38384     10.35284     15.36773         1.200570      0.165747      1.102212
C      5.61067      6.59456     10.35284        -0.676722     -0.852192     -0.175466
C     15.36773      6.59456     10.62556         1.966351     -0.242899     -0.182100
C      5.61067     14.38384     10.62556        -1.576552     -0.006079     -0.124379
C     15.36773     14.38384     10.35284         0.486629      0.067671      0.017862
C      5.61067     10.35284      6.59456        -0.276630      0.196286     -1.345387
C     15.36773     10.62556      6.59456         0.282658     -0.225404     -1.000800
C      5.61067     10.62556     14.38384        -0.265045      0.412435      1.444171
C     15.36773     10.35284     14.38384         0.053831     -0.438911      1.917965
C     10.35284      6.59456      5.61067        -0.185864     -0.895109     -0.686333
C     10.62556      6.59456     15.36773        -0.106297     -0.775445      1.053734
C     10.62556     14.38384      5.61067        -0.495534      2.022379     -0.782302
C     10.35284     14.38384     15.36773        -0.282146      1.434020      0.483069
C      6.59456      5.61067     10.35284        -0.966979     -0.411662      0.083313
C      6.59456     15.36773     10.62556        -1.310859      0.367559     -0.329536
C     14.38384      5.61067     10.62556         1.281430     -1.222889      0.176213
C     14.38384     15.36773     10.35284         0.431105      0.314838      0.068028
C     10.40319      3.19606      7.29314         0.002294      0.309301     -0.102015
C     10.35913      4.25547      6.23373         0.138598     -0.529090      0.020432
C      0.08601      7.29314      7.29314        -0.053189     -0.301503     -0.426591
C      0.13007      6.23373      6.23373        -0.123268      0.711501      0.032407
C      0.08601      3.19606      3.19606        -0.107981      1.629582      0.172175
C      0.13007      4.25547      4.25547        -0.084541     -0.403061     -1.238180
C     10.40319      7.29314      3.19606         0.016648     -0.429659      0.126084
C     10.35913      6.23373      4.25547         0.260087      0.082194     -0.502458
C      7.29314     10.40319      3.19606        -1.667319      0.007049      0.324763
C      6.23373     10.35913      4.25547         0.653623      0.075964     -0.608215
C      7.29314      0.08601      7.29314        -0.403372     -0.011766     -0.304876
C      6.23373      0.13007      6.23373         0.668390     -0.054351      0.266476
C      3.19606      0.08601      3.19606         0.657416     -0.016233      0.186828
C      4.25547      0.13007      4.25547        -0.374331     -0.072129     -0.519693
C      3.19606     10.40319      7.29314         0.371489      0.019040     -0.316338
C      4.25547     10.35913      6.23373        -0.722948      0.064749      0.367211
C      3.19606      7.29314     10.40319         0.297191     -0.213723     -0.006496
C      4.25547      6.23373     10.35913         0.047664      0.646579      0.092174
C      7.29314      7.29314      0.08601        -0.717379     -0.602725     -0.019979
C      6.23373      6.23373      0.13007         0.854213      1.133874     -0.074695
C      3.19606      3.19606      0.08601         0.813580      0.499472      0.009382
C      4.25547      4.25547      0.13007        -0.325566     -1.735227     -0.127643
C      7.29314      3.19606     10.40319        -0.330806      0.276392     -0.003494
C      6.23373      4.25547     10.35913         0.511730     -0.030504      0.230043
O     10.43466      3.58206      8.50569        -0.047963      0.182262      0.258598
O     10.54374     17.39634      8.50569         0.041976     -0.232176      0.484598
O     10.54374      3.58206     12.47271         0.084524     -0.061542     -0.038683
O     10.43466     17.39634     12.47271        -0.023250     -0.140709     -0.276699
O      8.50569     10.43466      3.58206         0.982738      0.184251      0.386719
O      8.50569     10.54374     17.39634         0.571121      0.084221     -0.228068
O     12.47271     10.54374      3.58206        -0.426424     -0.038503      0.187817
O     12.47271     10.43466     17.39634        -0.518805     -0.070114     -0.197561
O      3.58206      8.50569     10.43466         0.181719      0.434049     -0.030489
O     17.39634      8.50569     10.54374        -0.229695      0.713543      0.043681
O      3.58206     12.47271     10.54374         0.160313     -0.672776      0.024883
O     17.39634     12.47271     10.43466        -0.185390     -0.481087     -0.012294
O      3.58206     10.43466      8.50569         0.222488     -0.059727      0.400939
O     17.39634     10.54374      8.50569        -0.170687      0.036619      0.410648
O      3.58206     10.54374     12.47271         0.145989      0.021024     -0.306274
O     17.39634     10.43466     12.47271         0.070244     -0.050205     -0.084762
O     10.43466      8.50569      3.58206         0.000090      0.277296      0.180658
O     10.54374      8.50569     17.39634         0.070888      0.438093     -0.180985
O     10.54374     12.47271      3.58206        -0.222311     -0.967269      0.345168
O     10.43466     12.47271     17.39634        -0.084254     -0.449487     -0.245111
O      8.50569      3.58206     10.43466         0.495629      0.195955     -0.012521
O      8.50569     17.39634     10.54374         0.661265     -0.197333      0.022171
O     12.47271      3.58206     10.54374        -0.739969      0.278595      0.036493
O     12.47271     17.39634     10.43466        -0.439346     -0.202038     -0.044227
O     11.90042     11.90042     19.56718        -0.345781     -0.307548      0.259111
O     19.56718     19.56718     19.56718         0.325401      0.311329      0.282337
O     19.56718     11.90042     11.90042         0.277339     -0.277256     -0.140804
O     11.90042     19.56718     11.90042        -0.306377      0.286747     -0.234091
O      9.45224      1.03696      9.45224        -0.058325      0.071555     -0.047601
O      1.03696      9.45224      9.45224         0.035757     -0.073352     -0.072360
O      1.03696      1.03696      1.03696         0.058149      0.140496      0.102694
O      9.45224      9.45224      1.03696        -0.133848     -0.090504      0.102739
Zr     10.48920      2.52580     10.48920         0.150933     -0.166449     -0.162480
Zr     10.48920     18.45260     10.48920        -0.095922      0.180255     -0.044521
Zr     10.48920     10.48920      2.52580         0.330865     -0.309130     -0.197364
Zr     10.48920     10.48920     18.45260         0.005315     -0.085900      0.206565
Zr      2.52580     10.48920     10.48920        -0.066677      0.169033     -0.051485
Zr     18.45260     10.48920     10.48920         0.139370     -0.125727     -0.248889
Ir     12.05078     12.48530     10.46140         0.001217      0.000112     -0.005282
Ir     11.18368      7.41731     10.30417         0.007671     -0.002259     -0.042180
Ir      8.82797      7.37574     11.56909         0.018521      0.009156     -0.015444
Ir      7.48452     11.65821      7.65983        -0.003369      0.000989     -0.001726
Ir     11.59384     12.09119      7.12450        -0.017278     -0.036022     -0.026828
Ir     13.75553      8.98672      7.55375         0.010821      0.010860     -0.011196
Ir     12.48996     13.95467      8.41974         0.000113      0.019482      0.004721
Ir      9.72122     11.26478      5.56445         0.027001     -0.006998      0.007585
Ir      9.08213     13.47067      7.07632        -0.009915     -0.019696      0.010564
Ir      9.28121      9.66406      7.52749        -0.005042     -0.005345     -0.015730
Ir     13.27144      7.04051     11.95604         0.028861     -0.041054     -0.024248
Ir     13.58087      7.03506      9.11807         0.023829     -0.011444      0.005552
Ir     11.03250      7.60223     12.84764        -0.027197      0.000455      0.008692
Ir     13.61061     11.56223      8.75519        -0.005006     -0.009204      0.007832
Ir     11.50352      9.65063      6.23624        -0.005181      0.009635     -0.005058
Ir      7.14841      9.17861      8.94078         0.019589     -0.010095      0.000606
Ir     14.06171     11.42889     11.66023        -0.002228     -0.005765     -0.004369
Ir     11.65196      9.86139      8.89360         0.033124     -0.013888     -0.016089
Ir      9.43166      9.52100     10.24724        -0.037917     -0.045425      0.004137
Ir     13.86280      9.40121     10.18720         0.002441      0.022097     -0.004142
Ir     13.81053      9.15650     12.90695         0.024589      0.036962      0.004131
Ir     11.68637      9.76399     11.56768         0.027053      0.001366     -0.010591
Ir      9.90944     11.74947      8.97572        -0.003378      0.031254     -0.011926
Ir      9.06047      7.43533      8.82934         0.027266      0.014453     -0.009506
Ir     11.54988      7.57455      7.77760         0.019736     -0.023682     -0.023886
Ir      9.24991      9.49431     13.01927        -0.002928     -0.030764     -0.014596
Ir      7.52175     13.91605      8.99488         0.000188     -0.008336     -0.006577
Ir     10.89253     14.11619     11.95025        -0.016539     -0.001868      0.001207
Ir     10.12094     14.16642      9.52373        -0.008609     -0.020677     -0.005905
Ir      9.79615     11.69875     11.72840        -0.026545      0.012634      0.001150
Ir      7.58691     11.58744     10.21420         0.005526     -0.019100      0.004295
Ir      8.36228     13.75994     11.58775         0.000580     -0.028066      0.002198
Ir      7.52608     11.58284     12.83123         0.011337     -0.011985     -0.010816
Ir      9.76830     11.62739     14.34398         0.001306     -0.007976      0.008076
Ir     13.48873     13.88038     12.19205        -0.009826      0.002887     -0.000870
Ir     11.99511     12.05416     13.08486         0.002595     -0.002014      0.001314
Ir     11.57148      9.81138     14.20764         0.012062     -0.014230     -0.006442
Ir      7.14435      9.38477     11.50200         0.027636     -0.017024     -0.015459
