32
# total energy = -221.83523295 eVH      9.70918      7.74631      0.00000        -0.000105     -0.007657      0.000000
H      5.40902      1.03398      0.00000         0.000105      0.007657      0.000000
H      5.40902      7.74631      0.00000         0.000105     -0.007657      0.000000
H      9.70918      1.03398      0.00000        -0.000105      0.007657      0.000000
H     13.86275      6.54291      0.00000        -0.004552     -0.005991      0.000000
H      1.25545      2.23738      0.00000         0.004552      0.005991      0.000000
H      1.25545      6.54291      0.00000         0.004552     -0.005991      0.000000
H     13.86275      2.23738      0.00000        -0.004552      0.005991      0.000000
C      8.71317      7.27442      0.00000         0.001471     -0.020401      0.000000
C      6.40503      1.50587      0.00000        -0.001471      0.020401      0.000000
C      6.40503      7.27442      0.00000        -0.001471     -0.020401      0.000000
C      8.71317      1.50587     -0.00000         0.001471      0.020401      0.000000
C     14.42483      5.60714     -0.00000        -0.023591      0.022980     -0.000000
C      0.69337      3.17315     -0.00000         0.023591     -0.022980     -0.000000
C      0.69337      5.60714      0.00000         0.023591      0.022980     -0.000000
C     14.42483      3.17315     -0.00000        -0.023591     -0.022980      0.000000
C      7.55910      8.05533     -0.00000        -0.000000     -0.045424     -0.000000
C      7.55910      0.72496      0.00000        -0.000000      0.045424      0.000000
C      7.55910      3.64381      0.00000        -0.000000     -0.008253     -0.000000
C      7.55910      5.13648      0.00000        -0.000000      0.008253     -0.000000
C      1.39875      4.39015      0.00000         0.013310     -0.000000      0.000000
C     13.71945      4.39015      0.00000        -0.013310     -0.000000      0.000000
N      8.73317      5.91849     -0.00000         0.014148      0.008096     -0.000000
N      6.38503      2.86180      0.00000        -0.014148     -0.008096      0.000000
N      6.38503      5.91849      0.00000        -0.014148      0.008096      0.000000
N      8.73317      2.86180      0.00000         0.014148     -0.008096     -0.000000
O     12.37020      4.39015     -0.00000         0.013081      0.000000     -0.000000
O      2.74800      4.39015     -0.00000        -0.013081     -0.000000     -0.000000
Ir      4.48907      5.53774      0.00000        -0.001938     -0.007226      0.000000
Ir     10.62913      3.24255     -0.00000         0.001938      0.007226     -0.000000
Ir     10.62913      5.53774      0.00000         0.001938     -0.007226      0.000000
Ir      4.48907      3.24255     -0.00000        -0.001938      0.007226     -0.000000
