32
# total energy = -214.27850487 eVH      3.81215     -0.83838     10.00000         0.000644     -0.000926      0.000000
H      6.39032      6.72878     10.00000        -0.000644      0.000926     -0.000000
H      9.02245     -2.16979     10.00000        -0.000844     -0.001815     -0.000000
H      1.18002      8.06019     10.00000         0.000844      0.001815     -0.000000
H      7.57034      3.00817     10.00000         0.001847     -0.000428     -0.000000
H      2.63214      2.88223     10.00000        -0.001847      0.000428     -0.000000
H      1.18012      3.72055     10.00000        -0.000414      0.001255     -0.000000
H      9.02235      2.16985     10.00000         0.000414     -0.001255     -0.000000
H      2.63214      8.89845     10.00000        -0.002012      0.000282     -0.000000
H      7.57034     -3.00805     10.00000         0.002012     -0.000282     -0.000000
H      6.39032      5.05202     10.00000         0.000558      0.001944     -0.000000
H      3.81215      0.83838     10.00000        -0.000558     -0.001944     -0.000000
C      4.41461     -1.74238     10.00000         0.001801     -0.006061     -0.000000
C      5.78786      7.63278     10.00000        -0.001801      0.006061     -0.000000
C      9.50411     -1.19616     10.00000         0.003540      0.014810     -0.000000
C      0.69836      7.08656     10.00000        -0.003540     -0.014810      0.000000
C      6.48632      2.93837     10.00000        -0.013740      0.004620      0.000000
C      3.71615      2.95203     10.00000         0.013740     -0.004620      0.000000
C      0.69846      4.69430     10.00000        -0.005697      0.005802     -0.000000
C      9.50401      1.19610     10.00000         0.005697     -0.005802     -0.000000
C      3.71615      8.82877     10.00000         0.013512     -0.001566      0.000000
C      6.48632     -2.93837     10.00000        -0.013512      0.001566     -0.000000
C      5.78786      4.14814     10.00000        -0.002856     -0.014074      0.000000
C      4.41461      1.74226     10.00000         0.002856      0.014074     -0.000000
C      5.81745     -1.70456     10.00000        -0.023963     -0.049767      0.000000
C      4.38502      7.59496     10.00000         0.023963      0.049767      0.000000
C      8.76994      0.00006     10.00000         0.056236     -0.007249     -0.000000
C      1.43253      5.89034     10.00000        -0.056236      0.007249      0.000000
C      5.81745      1.70468     10.00000        -0.024367      0.042473     -0.000000
C      4.38502      4.18572     10.00000         0.024367     -0.042473     -0.000000
Ir      3.40079      5.89046     10.00000         0.001925     -0.003276     -0.000000
Ir      6.80168     -0.00006     10.00000        -0.001925      0.003276     -0.000000
