152
# total energy = -1060.14898367 eVH     10.35389      5.87395      7.64558        -0.320474      0.100430      1.090000
H     10.62451     15.10445      7.64558         0.074547     -0.069694      0.900528
H     10.62451      5.87395     13.33282        -0.266580      0.072720     -0.781744
H     10.35389     15.10445     13.33282         0.091639     -0.303568     -0.820399
H      7.64558     10.35389      5.87395         0.893379     -0.198531      0.207474
H      7.64558     10.62451     15.10445         0.316903     -0.030031     -0.061708
H     13.33282     10.62451      5.87395        -0.885721      0.219354      0.220138
H     13.33282     10.35389     15.10445        -0.281154     -0.028652     -0.062578
H      5.87395      7.64558     10.35389         0.094055      0.419636     -0.014672
H     15.10445      7.64558     10.62451        -0.040301      0.438584     -0.029218
H      5.87395     13.33282     10.62451        -0.019584     -0.968533      0.076656
H     15.10445     13.33282     10.35389        -0.080630     -0.324428      0.002096
H      5.87395     10.35389      7.64558         0.320120      0.061813      0.370011
H     15.10445     10.62451      7.64558        -0.120624     -0.160695      0.665756
H      5.87395     10.62451     13.33282        -0.061003      0.451019     -0.596854
H     15.10445     10.35389     13.33282         0.226326     -0.640674     -0.869114
H     10.35389      7.64558      5.87395        -0.021269      0.501131      0.345170
H     10.62451      7.64558     15.10445         0.340907      0.795240     -0.002617
H     10.62451     13.33282      5.87395         0.153950     -0.567617      0.200839
H     10.35389     13.33282     15.10445         0.035455     -0.288760     -0.168256
H      7.64558      5.87395     10.35389         0.371590      0.114584      0.063287
H      7.64558     15.10445     10.62451         0.386692     -0.127527      0.179297
H     13.33282      5.87395     10.62451        -0.306241      0.136925     -0.014127
H     13.33282     15.10445     10.35389        -0.657078     -0.105820      0.135751
H     12.45634     12.45634     19.01126         0.259179      0.272111     -0.226948
H     19.01126     19.01126     19.01126        -0.247336     -0.267651     -0.244766
H     19.01126     12.45634     12.45634        -0.248969      0.271518      0.236721
H     12.45634     19.01126     12.45634         0.290022     -0.235267      0.234995
C     10.35284      5.61067      6.59456         0.405778     -0.423224     -1.361697
C     10.62556     15.36773      6.59456        -0.167033      0.608893     -0.661921
C     10.62556      5.61067     14.38384         0.365374     -0.278187      0.772060
C     10.35284     15.36773     14.38384        -0.204298      0.211744      1.020865
C      6.59456     10.35284      5.61067        -1.392090      0.030854     -0.228333
C      6.59456     10.62556     15.36773        -0.669203      0.064574      0.356376
C     14.38384     10.62556      5.61067         1.306141     -0.186538     -0.628820
C     14.38384     10.35284     15.36773         0.318405     -0.130398      0.347400
C      5.61067      6.59456     10.35284        -0.274298     -0.672423     -0.029789
C     15.36773      6.59456     10.62556         0.410420     -0.862124      0.027756
C      5.61067     14.38384     10.62556        -0.145680      1.195897     -0.220239
C     15.36773     14.38384     10.35284         0.505606      0.702217     -0.037229
C      5.61067     10.35284      6.59456        -0.375079     -0.102431     -0.787802
C     15.36773     10.62556      6.59456         0.404328      0.107635     -0.684617
C      5.61067     10.62556     14.38384        -0.415101     -0.163403      1.217247
C     15.36773     10.35284     14.38384         0.239698      0.224710      1.420410
C     10.35284      6.59456      5.61067        -0.069045     -0.746348     -0.550789
C     10.62556      6.59456     15.36773        -0.144392     -0.987975      0.376330
C     10.62556     14.38384      5.61067        -0.492788      0.376498     -0.739320
C     10.35284     14.38384     15.36773        -0.175346      0.756304      0.500579
C      6.59456      5.61067     10.35284        -0.562587     -0.334920      0.002966
C      6.59456     15.36773     10.62556        -0.364397      0.448592      0.063751
C     14.38384      5.61067     10.62556         0.433256     -0.311415      0.008393
C     14.38384     15.36773     10.35284         1.131956      0.491478     -0.077079
C     10.40319      3.19606      7.29314        -0.006250      0.767437     -0.333476
C     10.35913      4.25547      6.23373         0.022241     -0.382222      0.288276
C      0.08601      7.29314      7.29314        -0.018340     -0.377016     -0.506723
C      0.13007      6.23373      6.23373        -0.046820      0.886026      0.093407
C      0.08601      3.19606      3.19606        -0.007163      0.693506      0.260051
C      0.13007      4.25547      4.25547         0.044854     -0.264517     -0.546687
C     10.40319      7.29314      3.19606        -0.063747     -1.114954      0.614474
C     10.35913      6.23373      4.25547        -0.045815      0.345382     -0.200774
C      7.29314     10.40319      3.19606        -1.092688     -0.054773      0.199599
C      6.23373     10.35913      4.25547         0.378190      0.101067     -0.518096
C      7.29314      0.08601      7.29314        -0.470701      0.029423     -0.450300
C      6.23373      0.13007      6.23373         0.180855      0.123376      0.121598
C      3.19606      0.08601      3.19606         0.698571      0.023274      0.173336
C      4.25547      0.13007      4.25547        -0.171802     -0.050026     -0.365218
C      3.19606     10.40319      7.29314         0.361521     -0.025780     -0.950892
C      4.25547     10.35913      6.23373        -0.127361     -0.055640      0.113160
C      3.19606      7.29314     10.40319         0.615697     -0.400370      0.002243
C      4.25547      6.23373     10.35913        -0.115893      0.176719      0.011584
C      7.29314      7.29314      0.08601        -0.428208     -0.297043     -0.015670
C      6.23373      6.23373      0.13007         0.152510      0.153792     -0.063082
C      3.19606      3.19606      0.08601         0.294078      0.491918     -0.025302
C      4.25547      4.25547      0.13007        -0.403510     -0.240071     -0.031492
C      7.29314      3.19606     10.40319        -0.284215      0.595230     -0.010571
C      6.23373      4.25547     10.35913         0.016608     -0.092241      0.013879
O     10.43466      3.58206      8.50569        -0.026337      0.078055      0.305949
O     10.54374     17.39634      8.50569         0.065277     -0.124519      0.594862
O     10.54374      3.58206     12.47271         0.029589      0.101903     -0.398870
O     10.43466     17.39634     12.47271         0.094597     -0.061347     -0.429697
O      8.50569     10.43466      3.58206         0.734907     -0.072083      0.014891
O      8.50569     10.54374     17.39634         0.526547      0.061005     -0.103443
O     12.47271     10.54374      3.58206        -0.653257      0.111735      0.209510
O     12.47271     10.43466     17.39634        -0.277367      0.004873      0.035748
O      3.58206      8.50569     10.43466         0.034657      0.444900     -0.062062
O     17.39634      8.50569     10.54374        -0.053576      0.447644      0.055917
O      3.58206     12.47271     10.54374         0.104035     -0.587796      0.004013
O     17.39634     12.47271     10.43466        -0.180362     -0.742363     -0.051294
O      3.58206     10.43466      8.50569         0.210907     -0.061139      0.808833
O     17.39634     10.54374      8.50569        -0.077999      0.073196      0.499571
O      3.58206     10.54374     12.47271        -0.001534     -0.006205     -0.263802
O     17.39634     10.43466     12.47271         0.036567     -0.010510     -0.232253
O     10.43466      8.50569      3.58206        -0.107240      0.532653     -0.100788
O     10.54374      8.50569     17.39634         0.058367      0.509998     -0.086865
O     10.54374     12.47271      3.58206         0.103022     -0.637494      0.129000
O     10.43466     12.47271     17.39634        -0.066667     -0.683469     -0.270975
O      8.50569      3.58206     10.43466         0.397325      0.022543     -0.046152
O      8.50569     17.39634     10.54374         0.641712     -0.153544      0.046060
O     12.47271      3.58206     10.54374        -0.517312      0.121546      0.028262
O     12.47271     17.39634     10.43466        -0.624273     -0.124437      0.040293
O     11.90042     11.90042     19.56718        -0.278758     -0.304907      0.223104
O     19.56718     19.56718     19.56718         0.309880      0.323187      0.297523
O     19.56718     11.90042     11.90042         0.284271     -0.325606     -0.236289
O     11.90042     19.56718     11.90042        -0.313769      0.229396     -0.201656
O      9.45224      1.03696      9.45224        -0.072469      0.084878     -0.082173
O      1.03696      9.45224      9.45224         0.099209     -0.106837     -0.062764
O      1.03696      1.03696      1.03696         0.080160      0.053246      0.097563
O      9.45224      9.45224      1.03696        -0.057863     -0.126056      0.135292
Zr     10.48920      2.52580     10.48920         0.044398     -0.091998      0.121541
Zr     10.48920     18.45260     10.48920        -0.183758      0.247414     -0.360168
Zr     10.48920     10.48920      2.52580         0.111396      0.359670     -0.344948
Zr     10.48920     10.48920     18.45260        -0.077480     -0.259036      0.235127
Zr      2.52580     10.48920     10.48920        -0.239404      0.133489      0.242779
Zr     18.45260     10.48920     10.48920         0.196506     -0.137964     -0.016095
Pd      9.36113     14.29775      9.31631         0.003760      0.026591     -0.035449
Pd      8.58839     13.63438     13.04738         0.002347      0.006484      0.031240
Pd     12.02249     14.40751      8.74209         0.013230     -0.002941      0.006697
Pd     12.76043     12.87657     10.67239        -0.057693     -0.015699      0.034352
Pd     12.12021      7.19449     12.67548         0.003878     -0.001799      0.003448
Pd     11.16344     14.89850     11.45554        -0.018398      0.023914     -0.013931
Pd     10.03711     12.55158     11.09197        -0.032287      0.042442     -0.025823
Pd     13.48192     12.15570      7.98107         0.009341      0.009456      0.012663
Pd     11.47924     11.54203      6.11033         0.007348      0.013585      0.001220
Pd      7.94299      8.38052      7.52473        -0.001221     -0.034090     -0.009784
Pd      8.72242     11.75708      6.84670        -0.000705      0.005753      0.007622
Pd     10.32258      9.45533      8.14995        -0.022561     -0.006311      0.015463
Pd      8.49850     14.46397      6.79305        -0.011325      0.005347     -0.020261
Pd     12.39801      9.01734      6.56906        -0.011670      0.027289      0.039284
Pd      9.71794      9.60927      5.57285         0.010180      0.004945      0.002893
Pd      6.80889      9.44879     12.13568         0.029164      0.006752      0.009253
Pd     12.17742      6.74092      7.95148         0.008940      0.004339      0.006127
Pd      5.91578     10.48409      9.68785        -0.001334     -0.001754      0.007117
Pd      7.55065      7.24062     13.40717        -0.007634     -0.013941     -0.015243
Ir     11.74005      9.77954     13.06642        -0.026538     -0.016199     -0.004230
Ir     13.55448      9.05637     11.47460        -0.012562      0.014236      0.028964
Ir      9.42887      8.86083     14.00963        -0.023840      0.015064      0.005489
Ir     10.50315     11.03374     14.86956        -0.009787     -0.052167      0.057945
Ir      7.26813     12.01578     11.34001        -0.014944      0.002875     -0.008434
Ir     14.65620     10.90636     10.14490        -0.014564      0.029319      0.040607
Ir     12.16810     10.56679      9.67469        -0.009027      0.019741     -0.018432
Ir      8.73672     10.99249     12.98755         0.055321      0.002222      0.021684
Ir     10.10925      9.91893     11.17607        -0.000896     -0.006780     -0.012979
Ir     13.74674     11.41974     12.47966        -0.050149      0.005060      0.045430
Ir     11.60505     12.36224     13.08219        -0.079520     -0.029881      0.007389
Ir      8.50081     11.09860      9.33706        -0.029203      0.036109     -0.012779
Ir     11.59405      8.02905     10.14216        -0.024128     -0.022934      0.003582
Ir      7.21709     13.03116      8.65512         0.029342     -0.004350      0.015589
Ir      9.54780      6.96257      9.23966         0.014808      0.016651      0.022745
Ir      8.05507      8.76674     10.05840         0.012390     -0.034769     -0.005400
Ir     10.72396     12.12327      8.50667         0.006805     -0.004031     -0.008776
Ir      9.51447      7.57283     11.75677         0.011755      0.024356     -0.031881
Ir     13.66914      8.79096      8.84118         0.037439     -0.009027      0.005516
