152
# total energy = -1110.39350208 eVH     10.35389      5.87395      7.64558        -0.389968     -0.129527      1.155546
H     10.62451     15.10445      7.64558         0.326209      0.077666      0.917620
H     10.62451      5.87395     13.33282        -0.318542     -0.675833     -1.334695
H     10.35389     15.10445     13.33282        -0.585538      0.430254     -0.334470
H      7.64558     10.35389      5.87395         0.558465     -0.520267     -0.101610
H      7.64558     10.62451     15.10445         0.386159     -0.233789      0.043448
H     13.33282     10.62451      5.87395        -0.582058      0.647953     -0.049599
H     13.33282     10.35389     15.10445        -0.524941      0.385400      0.152797
H      5.87395      7.64558     10.35389         0.149352      0.557535      0.027480
H     15.10445      7.64558     10.62451         0.428148      1.025824      0.286608
H      5.87395     13.33282     10.62451        -0.220609     -0.504553      0.362112
H     15.10445     13.33282     10.35389         0.027916     -0.299051     -0.379780
H      5.87395     10.35389      7.64558        -0.105079     -0.414796      1.491313
H     15.10445     10.62451      7.64558         0.219778      0.517372      1.328935
H      5.87395     10.62451     13.33282        -0.219201     -0.370526     -1.207218
H     15.10445     10.35389     13.33282         0.613396      1.005641     -1.533504
H     10.35389      7.64558      5.87395        -0.587538      0.532559     -0.172284
H     10.62451      7.64558     15.10445        -0.133276      0.447177      0.155950
H     10.62451     13.33282      5.87395         0.868128     -1.325351     -0.312208
H     10.35389     13.33282     15.10445         0.222931     -0.562468     -0.106927
H      7.64558      5.87395     10.35389         0.721648      0.162907     -0.175182
H      7.64558     15.10445     10.62451         1.980680      0.746978      0.224467
H     13.33282      5.87395     10.62451        -2.651566     -0.900431     -0.517413
H     13.33282     15.10445     10.35389        -0.877578     -0.056754     -0.252659
H     12.45634     12.45634     19.01126         0.271951      0.257898     -0.227374
H     19.01126     19.01126     19.01126        -0.266795     -0.254718     -0.238730
H     19.01126     12.45634     12.45634        -0.284155      0.281796      0.184784
H     12.45634     19.01126     12.45634         0.256498     -0.250580      0.235751
C     10.35284      5.61067      6.59456         0.076848     -0.481438     -1.201427
C     10.62556     15.36773      6.59456         0.192920      0.753883     -0.811212
C     10.62556      5.61067     14.38384         0.179798     -0.294436      1.784397
C     10.35284     15.36773     14.38384         0.084677      0.383172      1.792036
C      6.59456     10.35284      5.61067        -1.138429     -0.110705     -0.899093
C      6.59456     10.62556     15.36773        -0.701860     -0.094437      0.797577
C     14.38384     10.62556      5.61067         0.834916     -0.111669     -0.988874
C     14.38384     10.35284     15.36773         1.175624      0.168332      1.096826
C      5.61067      6.59456     10.35284        -0.668438     -0.903042     -0.189134
C     15.36773      6.59456     10.62556         2.012306     -0.326879     -0.187877
C      5.61067     14.38384     10.62556        -1.568111     -0.013817     -0.142048
C     15.36773     14.38384     10.35284         0.484503      0.091190     -0.000410
C      5.61067     10.35284      6.59456        -0.274714      0.214807     -1.354548
C     15.36773     10.62556      6.59456         0.296556     -0.268155     -0.978406
C      5.61067     10.62556     14.38384        -0.256133      0.448832      1.458110
C     15.36773     10.35284     14.38384         0.000245     -0.491780      1.944503
C     10.35284      6.59456      5.61067        -0.157963     -0.844540     -0.700070
C     10.62556      6.59456     15.36773        -0.118747     -0.712529      1.043999
C     10.62556     14.38384      5.61067        -0.501242      1.985993     -0.751190
C     10.35284     14.38384     15.36773        -0.258179      1.354296      0.503823
C      6.59456      5.61067     10.35284        -0.990650     -0.409469      0.095342
C      6.59456     15.36773     10.62556        -1.253899      0.369176     -0.333072
C     14.38384      5.61067     10.62556         1.269385     -1.304045      0.220934
C     14.38384     15.36773     10.35284         0.458481      0.310152      0.087300
C     10.40319      3.19606      7.29314         0.001138      0.304995     -0.112200
C     10.35913      4.25547      6.23373         0.142270     -0.580094      0.016555
C      0.08601      7.29314      7.29314        -0.053486     -0.278288     -0.419283
C      0.13007      6.23373      6.23373        -0.123765      0.666640      0.016270
C      0.08601      3.19606      3.19606        -0.105598      1.664872      0.165245
C      0.13007      4.25547      4.25547        -0.098230     -0.391336     -1.204835
C     10.40319      7.29314      3.19606         0.015838     -0.451600      0.121504
C     10.35913      6.23373      4.25547         0.264279      0.087292     -0.537687
C      7.29314     10.40319      3.19606        -1.698863      0.011356      0.324877
C      6.23373     10.35913      4.25547         0.671781      0.081235     -0.623843
C      7.29314      0.08601      7.29314        -0.411159     -0.015613     -0.318244
C      6.23373      0.13007      6.23373         0.730566     -0.058657      0.244486
C      3.19606      0.08601      3.19606         0.661558     -0.018551      0.179764
C      4.25547      0.13007      4.25547        -0.355831     -0.086373     -0.574498
C      3.19606     10.40319      7.29314         0.348662      0.023860     -0.319952
C      4.25547     10.35913      6.23373        -0.742143      0.079472      0.362411
C      3.19606      7.29314     10.40319         0.284527     -0.202036     -0.006488
C      4.25547      6.23373     10.35913         0.042092      0.632594      0.091728
C      7.29314      7.29314      0.08601        -0.715442     -0.609861     -0.028276
C      6.23373      6.23373      0.13007         0.903902      1.124053     -0.065253
C      3.19606      3.19606      0.08601         0.824634      0.514884      0.000510
C      4.25547      4.25547      0.13007        -0.325504     -1.768945     -0.130519
C      7.29314      3.19606     10.40319        -0.324554      0.270728     -0.004510
C      6.23373      4.25547     10.35913         0.508845     -0.020471      0.231281
O     10.43466      3.58206      8.50569        -0.048652      0.187412      0.259979
O     10.54374     17.39634      8.50569         0.042221     -0.236608      0.486841
O     10.54374      3.58206     12.47271         0.083913     -0.076444     -0.021706
O     10.43466     17.39634     12.47271        -0.023208     -0.141561     -0.268076
O      8.50569     10.43466      3.58206         0.993488      0.190449      0.376173
O      8.50569     10.54374     17.39634         0.580394      0.084408     -0.229624
O     12.47271     10.54374      3.58206        -0.413029     -0.041117      0.181502
O     12.47271     10.43466     17.39634        -0.505769     -0.067319     -0.192503
O      3.58206      8.50569     10.43466         0.184604      0.422851     -0.028623
O     17.39634      8.50569     10.54374        -0.230475      0.712421      0.046473
O      3.58206     12.47271     10.54374         0.162188     -0.682607      0.026468
O     17.39634     12.47271     10.43466        -0.186878     -0.474590     -0.010179
O      3.58206     10.43466      8.50569         0.231782     -0.061913      0.406712
O     17.39634     10.54374      8.50569        -0.172093      0.037401      0.412954
O      3.58206     10.54374     12.47271         0.148422      0.021481     -0.303753
O     17.39634     10.43466     12.47271         0.082026     -0.051843     -0.069600
O     10.43466      8.50569      3.58206         0.005402      0.273676      0.184037
O     10.54374      8.50569     17.39634         0.069486      0.425531     -0.173739
O     10.54374     12.47271      3.58206        -0.222012     -0.975117      0.328757
O     10.43466     12.47271     17.39634        -0.082066     -0.451225     -0.245287
O      8.50569      3.58206     10.43466         0.488493      0.197531     -0.009689
O      8.50569     17.39634     10.54374         0.664896     -0.203929      0.022496
O     12.47271      3.58206     10.54374        -0.747674      0.280970      0.038444
O     12.47271     17.39634     10.43466        -0.431952     -0.206150     -0.043428
O     11.90042     11.90042     19.56718        -0.347318     -0.307150      0.261240
O     19.56718     19.56718     19.56718         0.324004      0.311691      0.284419
O     19.56718     11.90042     11.90042         0.274279     -0.273356     -0.137967
O     11.90042     19.56718     11.90042        -0.305261      0.282844     -0.232956
O      9.45224      1.03696      9.45224        -0.061594      0.073409     -0.044785
O      1.03696      9.45224      9.45224         0.035753     -0.075785     -0.069775
O      1.03696      1.03696      1.03696         0.064059      0.150897      0.094943
O      9.45224      9.45224      1.03696        -0.144209     -0.099198      0.095356
Zr     10.48920      2.52580     10.48920         0.164902     -0.174039     -0.168402
Zr     10.48920     18.45260     10.48920        -0.101646      0.188117     -0.051350
Zr     10.48920     10.48920      2.52580         0.345316     -0.310462     -0.205974
Zr     10.48920     10.48920     18.45260         0.015767     -0.088764      0.199425
Zr      2.52580     10.48920     10.48920        -0.072361      0.180492     -0.052465
Zr     18.45260     10.48920     10.48920         0.147660     -0.133321     -0.253279
Ir     12.03770     12.48294     10.45406        -0.005165      0.000517      0.003185
Ir     11.22162      7.41293     10.23706         0.007870     -0.001436     -0.020330
Ir      8.85871      7.34663     11.51802         0.002899     -0.006404     -0.014173
Ir      7.45843     11.64756      7.65750        -0.009078     -0.002264     -0.001320
Ir     11.59595     12.07010      7.11087         0.001684     -0.005859     -0.002790
Ir     13.78732      8.99355      7.51801         0.004560     -0.000513     -0.009594
Ir     12.46971     13.95143      8.40563        -0.002613      0.000547     -0.004955
Ir      9.74159     11.25356      5.53656         0.002945     -0.001987     -0.007982
Ir      9.07364     13.43898      7.07740        -0.000043     -0.008140      0.000162
Ir      9.26380      9.67469      7.49602        -0.005729      0.004066     -0.006748
Ir     13.28622      7.03428     11.96080         0.000284     -0.006201      0.003531
Ir     13.64474      7.04267      9.10583         0.013461      0.002572     -0.006594
Ir     11.04522      7.58936     12.79309        -0.001271     -0.003203     -0.012954
Ir     13.59631     11.56431      8.75003        -0.003472     -0.003608     -0.002828
Ir     11.50144      9.61807      6.21628        -0.001089     -0.009933     -0.005607
Ir      7.16232      9.14318      8.91724         0.003411     -0.006198     -0.004406
Ir     14.06098     11.44018     11.64465         0.002172      0.000773     -0.004362
Ir     11.66174      9.82158      8.85548         0.004861     -0.011560     -0.009459
Ir      9.44535      9.49729     10.22232         0.000960     -0.003897     -0.008042
Ir     13.88165      9.41369     10.16385         0.002090      0.002187     -0.009016
Ir     13.84122      9.16254     12.87518         0.010133     -0.000254     -0.008551
Ir     11.70482      9.75729     11.53424         0.005609     -0.002620     -0.011957
Ir      9.91831     11.72611      8.96075         0.003179     -0.006040     -0.002887
Ir      9.11549      7.43440      8.76118         0.011352      0.002352     -0.017534
Ir     11.64788      7.51559      7.71397         0.024990     -0.015505     -0.015688
Ir      9.25616      9.46339     13.00071        -0.000453     -0.006916     -0.003758
Ir      7.50473     13.89807      8.99440        -0.002365     -0.000723      0.001193
Ir     10.86064     14.09620     11.95283        -0.003061     -0.009731     -0.001429
Ir     10.11051     14.14253      9.51433         0.000454     -0.004302     -0.000209
Ir      9.79030     11.67521     11.72240         0.000161     -0.002148     -0.002170
Ir      7.59126     11.55881     10.20503         0.002323     -0.005427     -0.000329
Ir      8.34260     13.73060     11.58130        -0.001103     -0.006081     -0.001251
Ir      7.52555     11.53699     12.82025         0.000224     -0.007552     -0.002192
Ir      9.78075     11.58499     14.34169         0.004977     -0.010952      0.000177
Ir     13.46296     13.88355     12.18509        -0.004482     -0.003267     -0.000943
Ir     11.98987     12.04003     13.07559         0.001307     -0.002028     -0.003970
Ir     11.58811      9.77423     14.17278         0.004861     -0.012511     -0.008958
Ir      7.15900      9.34196     11.47564         0.002468     -0.006202     -0.008005
