152
# total energy = -1023.26993803 eVH     10.35389      5.87395      7.64558         0.498837      0.083919      0.719860
H     10.62451     15.10445      7.64558        -0.093110     -0.064571      0.801002
H     10.62451      5.87395     13.33282         0.147091      0.129270     -0.636873
H     10.35389     15.10445     13.33282        -0.175127     -0.123163     -0.539821
H      7.64558     10.35389      5.87395         0.308719     -0.021718      0.189132
H      7.64558     10.62451     15.10445         0.658237     -0.216058     -0.129438
H     13.33282     10.62451      5.87395        -0.778310     -0.161093      0.203901
H     13.33282     10.35389     15.10445        -0.445077     -0.102764     -0.053316
H      5.87395      7.64558     10.35389         0.206630      1.064433     -0.255622
H     15.10445      7.64558     10.62451        -0.175876      0.467983     -0.118595
H      5.87395     13.33282     10.62451         0.161810     -0.419318     -0.061088
H     15.10445     13.33282     10.35389        -0.131162     -0.920125      0.020800
H      5.87395     10.35389      7.64558         0.132067      0.098650      0.457909
H     15.10445     10.62451      7.64558         0.097503     -0.021663      1.064522
H      5.87395     10.62451     13.33282         0.187283     -0.027603     -0.379129
H     15.10445     10.35389     13.33282        -0.123342     -0.059855     -0.547184
H     10.35389      7.64558      5.87395         0.125980      0.861477      0.186781
H     10.62451      7.64558     15.10445        -0.008073      0.510061     -0.162865
H     10.62451     13.33282      5.87395        -0.010197     -0.572284      0.214320
H     10.35389     13.33282     15.10445        -0.296935     -0.892182     -0.134702
H      7.64558      5.87395     10.35389         0.444993      0.096790     -0.039059
H      7.64558     15.10445     10.62451         0.829469     -0.279599      0.027346
H     13.33282      5.87395     10.62451        -0.448619      0.187061     -0.066065
H     13.33282     15.10445     10.35389        -0.656970     -0.099155      0.169601
H     12.45634     12.45634     19.01126         0.252297      0.264423     -0.230135
H     19.01126     19.01126     19.01126        -0.252475     -0.230943     -0.261424
H     19.01126     12.45634     12.45634        -0.234506      0.272342      0.240961
H     12.45634     19.01126     12.45634         0.224901     -0.263424      0.249746
C     10.35284      5.61067      6.59456        -0.200602     -0.357748     -0.028606
C     10.62556     15.36773      6.59456         0.066468      0.369362     -1.207469
C     10.62556      5.61067     14.38384        -0.059842     -0.253354      0.813749
C     10.35284     15.36773     14.38384         0.040820      0.864593      0.403953
C      6.59456     10.35284      5.61067        -0.363260     -0.037702     -0.178041
C      6.59456     10.62556     15.36773        -0.855432      0.205563      0.373312
C     14.38384     10.62556      5.61067         0.482168      0.303594     -0.507602
C     14.38384     10.35284     15.36773         0.774483     -0.109274      0.441021
C      5.61067      6.59456     10.35284        -0.321379     -0.631642      0.434375
C     15.36773      6.59456     10.62556         0.163554     -0.509032      0.081562
C      5.61067     14.38384     10.62556        -0.148850      0.388326     -0.024276
C     15.36773     14.38384     10.35284         0.381892     -0.043643     -0.092813
C      5.61067     10.35284      6.59456        -0.262876     -0.022765     -0.785609
C     15.36773     10.62556      6.59456         0.611512     -0.283236     -1.344547
C      5.61067     10.62556     14.38384        -0.341509     -0.004455      0.409129
C     15.36773     10.35284     14.38384         0.493819     -0.162404      1.134956
C     10.35284      6.59456      5.61067        -0.172266     -0.467360     -0.450541
C     10.62556      6.59456     15.36773         0.054917     -0.612807      0.273001
C     10.62556     14.38384      5.61067         0.091990      0.985849     -0.495568
C     10.35284     14.38384     15.36773         0.262185      0.587555      0.524087
C      6.59456      5.61067     10.35284        -0.131825     -0.827453      0.076265
C      6.59456     15.36773     10.62556        -1.510553      0.413764      0.121297
C     14.38384      5.61067     10.62556         0.641010     -0.272791     -0.016012
C     14.38384     15.36773     10.35284        -0.428374      0.681908     -0.316711
C     10.40319      3.19606      7.29314         0.007972      0.827624     -0.295193
C     10.35913      4.25547      6.23373        -0.047350     -0.479528      0.491839
C      0.08601      7.29314      7.29314        -0.008202     -0.259768     -0.520949
C      0.13007      6.23373      6.23373         0.026842      0.141162      0.201180
C      0.08601      3.19606      3.19606        -0.012574      0.595701      0.196339
C      0.13007      4.25547      4.25547        -0.092812     -0.175523     -0.189257
C     10.40319      7.29314      3.19606        -0.007963     -0.640625      0.554040
C     10.35913      6.23373      4.25547        -0.040627      0.266582     -0.603214
C      7.29314     10.40319      3.19606        -0.298424      0.028231      0.943371
C      6.23373     10.35913      4.25547         0.167040      0.033188     -0.125923
C      7.29314      0.08601      7.29314        -0.319238     -0.035627     -0.301085
C      6.23373      0.13007      6.23373         0.333883     -0.052603      0.325560
C      3.19606      0.08601      3.19606         0.522951     -0.030758      0.687521
C      4.25547      0.13007      4.25547        -0.094367     -0.029549     -0.366571
C      3.19606     10.40319      7.29314         0.704775      0.001912     -0.419298
C      4.25547     10.35913      6.23373        -0.156414      0.029933      0.083426
C      3.19606      7.29314     10.40319         0.673005     -1.295008     -0.012863
C      4.25547      6.23373     10.35913        -0.654467      0.902632      0.074248
C      7.29314      7.29314      0.08601        -0.695317     -0.183940     -0.015522
C      6.23373      6.23373      0.13007         0.214215      0.193388      0.020490
C      3.19606      3.19606      0.08601         0.270228      0.303198     -0.019759
C      4.25547      4.25547      0.13007        -0.067852     -0.042039     -0.003633
C      7.29314      3.19606     10.40319        -0.365841      1.001299      0.016317
C      6.23373      4.25547     10.35913         1.075800     -0.016908      0.009700
O     10.43466      3.58206      8.50569        -0.043358      0.049946      0.382818
O     10.54374     17.39634      8.50569        -0.042476     -0.172581      0.590734
O     10.54374      3.58206     12.47271         0.049442      0.075142     -0.326397
O     10.43466     17.39634     12.47271        -0.011153     -0.137122     -0.624683
O      8.50569     10.43466      3.58206         0.328769     -0.033138     -0.033430
O      8.50569     10.54374     17.39634         0.479116      0.044127     -0.146622
O     12.47271     10.54374      3.58206        -0.479457      0.008135      0.089070
O     12.47271     10.43466     17.39634        -0.786771      0.000669     -0.185961
O      3.58206      8.50569     10.43466         0.110799      1.049328      0.014753
O     17.39634      8.50569     10.54374        -0.025919      0.307532      0.072770
O      3.58206     12.47271     10.54374         0.073892     -0.472856      0.049727
O     17.39634     12.47271     10.43466        -0.176204     -0.891624      0.056939
O      3.58206     10.43466      8.50569        -0.060715     -0.068172      0.338566
O     17.39634     10.54374      8.50569        -0.128333      0.040962      0.459758
O      3.58206     10.54374     12.47271         0.092802     -0.021282     -0.639122
O     17.39634     10.43466     12.47271        -0.188386      0.056656     -0.789549
O     10.43466      8.50569      3.58206         0.029413      0.642178      0.161552
O     10.54374      8.50569     17.39634         0.062672      0.438579     -0.079675
O     10.54374     12.47271      3.58206        -0.006337     -0.696277      0.221177
O     10.43466     12.47271     17.39634         0.031596     -0.847211     -0.239177
O      8.50569      3.58206     10.43466         0.445648      0.023549     -0.040354
O      8.50569     17.39634     10.54374         0.702454     -0.263327     -0.064742
O     12.47271      3.58206     10.54374        -0.460164      0.149580      0.041466
O     12.47271     17.39634     10.43466        -0.554446     -0.019074     -0.005036
O     11.90042     11.90042     19.56718        -0.293116     -0.314089      0.255520
O     19.56718     19.56718     19.56718         0.284024      0.261195      0.310014
O     19.56718     11.90042     11.90042         0.259333     -0.323022     -0.246302
O     11.90042     19.56718     11.90042        -0.272286      0.277086     -0.267927
O      9.45224      1.03696      9.45224        -0.081570      0.042084     -0.071906
O      1.03696      9.45224      9.45224         0.015416     -0.170396     -0.097629
O      1.03696      1.03696      1.03696         0.004767      0.068136      0.175027
O      9.45224      9.45224      1.03696        -0.061929     -0.104435      0.105021
Zr     10.48920      2.52580     10.48920         0.000373     -0.097424     -0.043385
Zr     10.48920     18.45260     10.48920         0.136513      0.365016      0.010193
Zr     10.48920     10.48920      2.52580         0.011866     -0.015692     -0.367027
Zr     10.48920     10.48920     18.45260        -0.155207     -0.050781      0.373480
Zr      2.52580     10.48920     10.48920        -0.348295      0.243669     -0.109404
Zr     18.45260     10.48920     10.48920         0.275846     -0.009933     -0.282736
Pd      8.96217     10.10794     13.31363        -0.000652     -0.013002      0.023381
Pd     10.67563      9.69494     10.83643        -0.086297     -0.057746     -0.052134
Pd     13.71049      8.37800     12.58422        -0.004123      0.043348     -0.002077
Pd     10.98949     10.89985     14.96341        -0.028180     -0.025135     -0.006042
Pd     12.90855     11.01320     12.96441         0.006088      0.034503      0.048298
Pd     15.10737     11.08364     11.31435        -0.016508     -0.046896      0.005465
Pd      6.58522      7.72971     12.33131        -0.013887      0.008310      0.026540
Pd      9.31069      7.27928      9.86063        -0.007976      0.003167     -0.011089
Pd      9.21345      7.46168     12.62655         0.018477      0.007135     -0.031861
Pd     11.62133      7.14847     11.42116         0.000984      0.020125     -0.035471
Pd     11.70706      7.97836      8.90781         0.013003     -0.007770     -0.059687
Pd      7.38498     11.76986     11.76430        -0.004871      0.013348     -0.002359
Pd      9.21838     14.77865      9.44918         0.019417     -0.021175      0.016771
Pd      8.40321     12.54640     14.24439        -0.027478     -0.025358     -0.013279
Pd     14.09462     14.24521      8.31562         0.014043      0.002609     -0.002448
Pd     11.50882     13.64187      8.72958        -0.000663     -0.006105      0.014906
Pd     14.16615     11.68562      8.89587         0.000533     -0.008083      0.015772
Pd      8.73282     14.02633     12.05718        -0.006721     -0.004203      0.036938
Pd     12.26593     13.48776     14.13295        -0.029851      0.023852      0.000908
Pd     11.35364     14.41796     11.44445         0.010385     -0.001540      0.007817
Pd     14.08523     13.58712     12.26979        -0.023610     -0.019214     -0.009906
Pd     12.42397     12.15909     10.72827         0.049958     -0.037490     -0.010186
Pd     12.75222     12.50919      6.69135        -0.000223      0.008384     -0.007436
Pd     13.93917      8.99729      8.00101        -0.004984     -0.006131     -0.023679
Pd      6.93749      8.49137      8.75138         0.005724     -0.011851     -0.011978
Pd      5.62646     10.10603     10.68554        -0.017713     -0.004143     -0.046720
Pd      9.39722      9.44442      8.10735         0.014442      0.001361     -0.048192
Pd      8.55949      7.00819      7.23627        -0.012947     -0.011217     -0.012743
Pd      9.76821     12.13186     10.34341        -0.100373     -0.011578     -0.140566
Pd     11.64499     10.80197      8.50567        -0.027038     -0.043609     -0.065974
Pd     11.59014      9.09664      6.47088         0.016600     -0.015113     -0.026942
Pd     10.08200     11.35402      6.36446         0.000248      0.011090      0.013902
Ir     11.27722      9.00331     13.20256        -0.050327      0.079323     -0.014108
Ir     13.21123      9.61292     10.39363         0.023450     -0.037712     -0.064123
Ir     10.55479     12.20138     12.71378        -0.009658     -0.037304      0.182436
Ir      7.61487     10.99612      9.23668         0.081765      0.050200     -0.047405
Ir      8.81034     12.65560      8.08001         0.065734     -0.119220      0.030827
Ir      8.17943      9.29822     11.00113         0.065259     -0.019006     -0.025320
