152
# total energy = -1110.36115084 eVH     10.35389      5.87395      7.64558        -0.341873     -0.160090      1.029441
H     10.62451     15.10445      7.64558         0.382933      0.090381      0.945117
H     10.62451      5.87395     13.33282        -0.305767     -0.718400     -1.414981
H     10.35389     15.10445     13.33282        -0.638841      0.375833     -0.321631
H      7.64558     10.35389      5.87395         0.543803     -0.541873     -0.081703
H      7.64558     10.62451     15.10445         0.355753     -0.242272      0.039468
H     13.33282     10.62451      5.87395        -0.523076      0.609944     -0.015175
H     13.33282     10.35389     15.10445        -0.532199      0.416514      0.163174
H      5.87395      7.64558     10.35389         0.140920      0.494932      0.034985
H     15.10445      7.64558     10.62451         0.429924      0.848238      0.251216
H      5.87395     13.33282     10.62451        -0.229967     -0.443548      0.364276
H     15.10445     13.33282     10.35389         0.031280     -0.310891     -0.391759
H      5.87395     10.35389      7.64558        -0.071471     -0.349873      1.443177
H     15.10445     10.62451      7.64558         0.201101      0.407205      1.254734
H      5.87395     10.62451     13.33282        -0.144700     -0.336540     -1.124530
H     15.10445     10.35389     13.33282         0.534675      0.880179     -1.514334
H     10.35389      7.64558      5.87395        -0.530863      0.495726     -0.197288
H     10.62451      7.64558     15.10445        -0.135980      0.550774      0.200513
H     10.62451     13.33282      5.87395         0.907422     -1.407828     -0.331419
H     10.35389     13.33282     15.10445         0.288871     -0.546364     -0.071278
H      7.64558      5.87395     10.35389         0.723844      0.174044     -0.140265
H      7.64558     15.10445     10.62451         1.971102      0.820473      0.187308
H     13.33282      5.87395     10.62451        -2.693623     -0.996691     -0.420067
H     13.33282     15.10445     10.35389        -0.870302     -0.041098     -0.253612
H     12.45634     12.45634     19.01126         0.271776      0.257980     -0.227470
H     19.01126     19.01126     19.01126        -0.266787     -0.254423     -0.238019
H     19.01126     12.45634     12.45634        -0.282730      0.281270      0.187121
H     12.45634     19.01126     12.45634         0.256038     -0.251733      0.235889
C     10.35284      5.61067      6.59456         0.099249     -0.499397     -1.256751
C     10.62556     15.36773      6.59456         0.163027      0.770247     -0.854443
C     10.62556      5.61067     14.38384         0.170976     -0.325326      1.822126
C     10.35284     15.36773     14.38384         0.121361      0.399923      1.810651
C      6.59456     10.35284      5.61067        -1.118956     -0.111326     -0.846440
C      6.59456     10.62556     15.36773        -0.675874     -0.107287      0.730215
C     14.38384     10.62556      5.61067         0.886424     -0.115252     -0.999082
C     14.38384     10.35284     15.36773         1.207212      0.164779      1.104085
C      5.61067      6.59456     10.35284        -0.689888     -0.801471     -0.162248
C     15.36773      6.59456     10.62556         1.944073     -0.189610     -0.176948
C      5.61067     14.38384     10.62556        -1.575648     -0.004745     -0.111905
C     15.36773     14.38384     10.35284         0.486653      0.049014      0.031730
C      5.61067     10.35284      6.59456        -0.271269      0.205254     -1.362919
C     15.36773     10.62556      6.59456         0.274176     -0.195510     -1.000536
C      5.61067     10.62556     14.38384        -0.280077      0.379625      1.413691
C     15.36773     10.35284     14.38384         0.073002     -0.428462      1.904447
C     10.35284      6.59456      5.61067        -0.201632     -0.926920     -0.693254
C     10.62556      6.59456     15.36773        -0.096879     -0.814671      1.045138
C     10.62556     14.38384      5.61067        -0.483821      2.052637     -0.784314
C     10.35284     14.38384     15.36773        -0.296436      1.479816      0.467517
C      6.59456      5.61067     10.35284        -0.959354     -0.412209      0.076533
C      6.59456     15.36773     10.62556        -1.346396      0.344837     -0.334321
C     14.38384      5.61067     10.62556         1.302912     -1.135220      0.149679
C     14.38384     15.36773     10.35284         0.402817      0.317381      0.055859
C     10.40319      3.19606      7.29314         0.003220      0.311831     -0.097474
C     10.35913      4.25547      6.23373         0.136875     -0.506156      0.030496
C      0.08601      7.29314      7.29314        -0.054176     -0.309354     -0.431508
C      0.13007      6.23373      6.23373        -0.127142      0.726284      0.045104
C      0.08601      3.19606      3.19606        -0.110232      1.623052      0.174171
C      0.13007      4.25547      4.25547        -0.087121     -0.409616     -1.251434
C     10.40319      7.29314      3.19606         0.016967     -0.423055      0.131175
C     10.35913      6.23373      4.25547         0.259935      0.078121     -0.485285
C      7.29314     10.40319      3.19606        -1.662643      0.005440      0.326895
C      6.23373     10.35913      4.25547         0.652496      0.077967     -0.610867
C      7.29314      0.08601      7.29314        -0.397428     -0.009205     -0.295338
C      6.23373      0.13007      6.23373         0.624298     -0.052722      0.275731
C      3.19606      0.08601      3.19606         0.662188     -0.015113      0.190279
C      4.25547      0.13007      4.25547        -0.375617     -0.061312     -0.487111
C      3.19606     10.40319      7.29314         0.382150      0.018511     -0.320535
C      4.25547     10.35913      6.23373        -0.728144      0.058834      0.375629
C      3.19606      7.29314     10.40319         0.306259     -0.219753     -0.005996
C      4.25547      6.23373     10.35913         0.055051      0.649102      0.093961
C      7.29314      7.29314      0.08601        -0.719071     -0.593441     -0.015456
C      6.23373      6.23373      0.13007         0.800775      1.149095     -0.078816
C      3.19606      3.19606      0.08601         0.806236      0.486872      0.013503
C      4.25547      4.25547      0.13007        -0.328406     -1.706327     -0.118517
C      7.29314      3.19606     10.40319        -0.333651      0.279360     -0.003215
C      6.23373      4.25547     10.35913         0.521752     -0.037677      0.229384
O     10.43466      3.58206      8.50569        -0.047250      0.180687      0.258057
O     10.54374     17.39634      8.50569         0.041193     -0.230975      0.485314
O     10.54374      3.58206     12.47271         0.085906     -0.056601     -0.043931
O     10.43466     17.39634     12.47271        -0.023104     -0.139458     -0.281041
O      8.50569     10.43466      3.58206         0.983277      0.181862      0.390238
O      8.50569     10.54374     17.39634         0.564888      0.083716     -0.226422
O     12.47271     10.54374      3.58206        -0.431557     -0.037823      0.189693
O     12.47271     10.43466     17.39634        -0.526666     -0.070786     -0.200570
O      3.58206      8.50569     10.43466         0.178466      0.441502     -0.031246
O     17.39634      8.50569     10.54374        -0.227721      0.714634      0.041747
O      3.58206     12.47271     10.54374         0.158559     -0.663811      0.024045
O     17.39634     12.47271     10.43466        -0.185286     -0.484678     -0.013416
O      3.58206     10.43466      8.50569         0.220053     -0.058789      0.400223
O     17.39634     10.54374      8.50569        -0.169247      0.036775      0.409648
O      3.58206     10.54374     12.47271         0.142652      0.021085     -0.308725
O     17.39634     10.43466     12.47271         0.066419     -0.050246     -0.089630
O     10.43466      8.50569      3.58206        -0.002140      0.277905      0.178077
O     10.54374      8.50569     17.39634         0.071138      0.440957     -0.183613
O     10.54374     12.47271      3.58206        -0.222781     -0.964978      0.348198
O     10.43466     12.47271     17.39634        -0.085225     -0.448302     -0.244467
O      8.50569      3.58206     10.43466         0.499271      0.195239     -0.013523
O      8.50569     17.39634     10.54374         0.656773     -0.192637      0.023020
O     12.47271      3.58206     10.54374        -0.734662      0.277861      0.036644
O     12.47271     17.39634     10.43466        -0.444564     -0.198607     -0.044423
O     11.90042     11.90042     19.56718        -0.344884     -0.307237      0.258569
O     19.56718     19.56718     19.56718         0.326051      0.310788      0.281316
O     19.56718     11.90042     11.90042         0.278733     -0.278519     -0.141307
O     11.90042     19.56718     11.90042        -0.307438      0.288749     -0.234002
O      9.45224      1.03696      9.45224        -0.056652      0.070838     -0.048823
O      1.03696      9.45224      9.45224         0.035225     -0.072226     -0.073522
O      1.03696      1.03696      1.03696         0.056606      0.137768      0.105726
O      9.45224      9.45224      1.03696        -0.130201     -0.088049      0.105382
Zr     10.48920      2.52580     10.48920         0.141837     -0.162750     -0.160755
Zr     10.48920     18.45260     10.48920        -0.091330      0.178747     -0.040264
Zr     10.48920     10.48920      2.52580         0.325860     -0.310202     -0.197904
Zr     10.48920     10.48920     18.45260         0.001417     -0.083097      0.210414
Zr      2.52580     10.48920     10.48920        -0.063833      0.161691     -0.050426
Zr     18.45260     10.48920     10.48920         0.134747     -0.121028     -0.246795
Ir     12.06057     12.49073     10.46408         0.000879     -0.011580     -0.007507
Ir     11.14649      7.41768     10.33225         0.037795     -0.000977     -0.012291
Ir      8.79421      7.40150     11.59313         0.026004     -0.025670     -0.016431
Ir      7.48499     11.66835      7.65128         0.003624     -0.006089      0.007919
Ir     11.59611     12.09722      7.12570         0.001279      0.003350      0.007373
Ir     13.73220      8.97190      7.56858         0.012510      0.011452     -0.005965
Ir     12.50830     13.95352      8.42223        -0.013037     -0.005032     -0.001891
Ir      9.71507     11.26873      5.57224        -0.000647      0.000128     -0.002299
Ir      9.08718     13.47425      7.07453        -0.003943      0.002280      0.003674
Ir      9.29207      9.66307      7.54044        -0.008227      0.001564     -0.014158
Ir     13.24762      7.04340     11.94989         0.014195      0.002323      0.014746
Ir     13.53028      7.02281      9.12347         0.038468      0.014339     -0.007276
Ir     11.00773      7.61121     12.87175         0.028315     -0.005654     -0.019260
Ir     13.61750     11.55606      8.75835        -0.009899      0.003183     -0.000545
Ir     11.50528      9.66567      6.24060        -0.002787     -0.013279     -0.003287
Ir      7.13890      9.21172      8.95066         0.001746     -0.025884     -0.009893
Ir     14.05727     11.41548     11.66750         0.003757      0.010030     -0.007213
Ir     11.64790      9.87788      8.90962         0.012271     -0.010650     -0.013607
Ir      9.42057      9.53886     10.25903         0.013863     -0.003754     -0.004854
Ir     13.85156      9.38848     10.19430         0.001138      0.011235     -0.008141
Ir     13.79908      9.15011     12.92317         0.000497     -0.002603     -0.017239
Ir     11.67854      9.76623     11.58085         0.006025     -0.001439     -0.010033
Ir      9.91264     11.76739      8.98164        -0.003000     -0.008969     -0.004750
Ir      9.01692      7.44511      8.86156         0.034293     -0.016890     -0.027834
Ir     11.48417      7.60253      7.80425         0.054698     -0.019651     -0.020051
Ir      9.23915      9.51638     13.02508         0.010783     -0.011799     -0.003067
Ir      7.53358     13.93491      8.98789        -0.006139     -0.014752      0.006340
Ir     10.91537     14.13573     11.94351        -0.016370     -0.011613      0.010839
Ir     10.13092     14.18377      9.52096        -0.004512     -0.014086      0.001344
Ir      9.80305     11.71774     11.72850         0.001576     -0.021808     -0.000599
Ir      7.59005     11.61483     10.20953        -0.004333     -0.019887      0.003640
Ir      8.38227     13.78206     11.58515        -0.016894     -0.010508      0.002052
Ir      7.52965     11.62196     12.83125        -0.005097     -0.029947      0.003389
Ir      9.76280     11.64947     14.34510         0.004797     -0.014469     -0.003630
Ir     13.50821     13.87467     12.19506        -0.011254      0.001966     -0.002807
Ir     11.99659     12.06595     13.08983         0.001889     -0.012366     -0.006502
Ir     11.56379      9.82913     14.21695         0.004161     -0.011079     -0.006194
Ir      7.13241      9.42632     11.50974         0.005563     -0.030133     -0.001674
