152
# total energy = -1024.43434265 eVH     10.35389      5.87395      7.64558         0.474528      0.027807      0.732761
H     10.62451     15.10445      7.64558         0.063289     -0.201158      0.631331
H     10.62451      5.87395     13.33282         0.094555      0.155803     -0.573822
H     10.35389     15.10445     13.33282        -0.482671     -0.029654     -0.745836
H      7.64558     10.35389      5.87395         0.346637      0.028139      0.159749
H      7.64558     10.62451     15.10445         0.925363     -0.246725      0.045504
H     13.33282     10.62451      5.87395        -0.799699     -0.142643      0.148923
H     13.33282     10.35389     15.10445        -0.902436     -0.432134      0.212369
H      5.87395      7.64558     10.35389         0.161863      0.729478     -0.330928
H     15.10445      7.64558     10.62451        -0.140093      0.380909     -0.017684
H      5.87395     13.33282     10.62451         0.157327     -0.517351     -0.104575
H     15.10445     13.33282     10.35389        -0.093523     -1.193471      0.099419
H      5.87395     10.35389      7.64558         0.136594      0.182799      0.520988
H     15.10445     10.62451      7.64558         0.008257      0.094817      1.037910
H      5.87395     10.62451     13.33282         0.074313     -0.041226     -0.459489
H     15.10445     10.35389     13.33282        -0.174971     -0.156748     -0.441951
H     10.35389      7.64558      5.87395         0.089733      1.021158      0.229224
H     10.62451      7.64558     15.10445         0.000704      0.270138     -0.160891
H     10.62451     13.33282      5.87395        -0.088846     -0.385634      0.320030
H     10.35389     13.33282     15.10445        -0.442995     -0.581991      0.000769
H      7.64558      5.87395     10.35389         0.527988      0.090678     -0.110926
H      7.64558     15.10445     10.62451         0.936118     -0.217041     -0.186456
H     13.33282      5.87395     10.62451        -0.592479      0.091823     -0.068258
H     13.33282     15.10445     10.35389        -0.588306     -0.061826      0.240833
H     12.45634     12.45634     19.01126         0.236289      0.277834     -0.237514
H     19.01126     19.01126     19.01126        -0.249046     -0.249060     -0.242153
H     19.01126     12.45634     12.45634        -0.267080      0.264904      0.219619
H     12.45634     19.01126     12.45634         0.237451     -0.266659      0.239898
C     10.35284      5.61067      6.59456        -0.219881     -0.686257      0.097529
C     10.62556     15.36773      6.59456        -0.049463      0.377625     -0.860247
C     10.62556      5.61067     14.38384        -0.005150     -0.053286      0.699365
C     10.35284     15.36773     14.38384         0.200509      0.696758      0.163772
C      6.59456     10.35284      5.61067        -0.349907     -0.015052     -0.310712
C      6.59456     10.62556     15.36773        -1.090401      0.257197      0.280299
C     14.38384     10.62556      5.61067         0.424426      0.386116     -0.690235
C     14.38384     10.35284     15.36773         1.072556      0.031599      0.239363
C      5.61067      6.59456     10.35284        -0.423551     -0.372227      0.363383
C     15.36773      6.59456     10.62556         0.188283     -0.491193      0.013145
C      5.61067     14.38384     10.62556        -0.199985      0.575884     -0.000349
C     15.36773     14.38384     10.35284         0.332855      0.036967     -0.119429
C      5.61067     10.35284      6.59456        -0.333703     -0.091996     -1.015198
C     15.36773     10.62556      6.59456         0.916247     -0.347119     -0.959747
C      5.61067     10.62556     14.38384        -0.419622      0.027996      0.299718
C     15.36773     10.35284     14.38384         0.652644     -0.097218      1.066001
C     10.35284      6.59456      5.61067        -0.234662     -0.583267     -0.938582
C     10.62556      6.59456     15.36773         0.059916     -0.262521      0.044018
C     10.62556     14.38384      5.61067         0.060343      1.198748     -0.416518
C     10.35284     14.38384     15.36773         0.284216      0.160228      0.710819
C      6.59456      5.61067     10.35284        -0.182073     -0.732331      0.152349
C      6.59456     15.36773     10.62556        -1.226963      0.245041      0.169266
C     14.38384      5.61067     10.62556         1.069619     -0.298158      0.038019
C     14.38384     15.36773     10.35284        -0.470197      0.804703     -0.403502
C     10.40319      3.19606      7.29314        -0.033741      0.879584     -0.416929
C     10.35913      4.25547      6.23373         0.054005     -0.507493      0.546774
C      0.08601      7.29314      7.29314        -0.021672     -0.407912     -0.349627
C      0.13007      6.23373      6.23373        -0.023521      0.016665      0.100868
C      0.08601      3.19606      3.19606         0.011486      1.280130      0.192401
C      0.13007      4.25547      4.25547        -0.046145     -0.220931     -0.196905
C     10.40319      7.29314      3.19606        -0.014430     -1.048910      0.373203
C     10.35913      6.23373      4.25547         0.035376      0.476233     -0.675250
C      7.29314     10.40319      3.19606        -0.311131      0.031640      0.726330
C      6.23373     10.35913      4.25547         0.147873      0.068616     -0.105835
C      7.29314      0.08601      7.29314        -0.661736     -0.018891     -0.276682
C      6.23373      0.13007      6.23373         0.382290     -0.075590      0.544667
C      3.19606      0.08601      3.19606         1.013203     -0.003965      0.260442
C      4.25547      0.13007      4.25547        -0.166109     -0.034500     -0.538606
C      3.19606     10.40319      7.29314         0.363157     -0.009393     -0.945672
C      4.25547     10.35913      6.23373        -0.284549      0.089940      0.239738
C      3.19606      7.29314     10.40319         0.521051     -1.337362     -0.037895
C      4.25547      6.23373     10.35913        -0.550028      0.738709      0.113118
C      7.29314      7.29314      0.08601        -0.390751     -0.230194      0.000963
C      6.23373      6.23373      0.13007         0.155220      0.145238     -0.003511
C      3.19606      3.19606      0.08601         0.260456      0.248623     -0.017330
C      4.25547      4.25547      0.13007        -0.122985     -0.055120      0.006517
C      7.29314      3.19606     10.40319        -0.393983      0.635867      0.007869
C      6.23373      4.25547     10.35913         1.086858     -0.119707      0.056681
O     10.43466      3.58206      8.50569        -0.024420      0.044001      0.444350
O     10.54374     17.39634      8.50569        -0.006489     -0.112412      0.462887
O     10.54374      3.58206     12.47271         0.039884     -0.109008     -0.127098
O     10.43466     17.39634     12.47271        -0.058126     -0.046096     -0.476536
O      8.50569     10.43466      3.58206         0.285406     -0.031052     -0.038032
O      8.50569     10.54374     17.39634         0.722633      0.027160     -0.202455
O     12.47271     10.54374      3.58206        -0.790379     -0.037221      0.146256
O     12.47271     10.43466     17.39634        -0.284752     -0.028857      0.031597
O      3.58206      8.50569     10.43466         0.158701      1.100909     -0.034152
O     17.39634      8.50569     10.54374        -0.098759      0.434702      0.058578
O      3.58206     12.47271     10.54374         0.068023     -0.398160      0.035866
O     17.39634     12.47271     10.43466        -0.159554     -0.679071     -0.009420
O      3.58206     10.43466      8.50569         0.068208     -0.067564      0.802456
O     17.39634     10.54374      8.50569        -0.060811      0.045934      0.335138
O      3.58206     10.54374     12.47271        -0.012320      0.036944     -0.243862
O     17.39634     10.43466     12.47271        -0.256765      0.000265     -0.717707
O     10.43466      8.50569      3.58206         0.118450      0.829265      0.190931
O     10.54374      8.50569     17.39634         0.031935      0.606822     -0.145335
O     10.54374     12.47271      3.58206         0.007423     -1.008852      0.171178
O     10.43466     12.47271     17.39634        -0.041338     -0.927831     -0.206994
O      8.50569      3.58206     10.43466         0.562081      0.126447     -0.015561
O      8.50569     17.39634     10.54374         0.508222     -0.195374     -0.009803
O     12.47271      3.58206     10.54374        -0.475983      0.161122      0.058949
O     12.47271     17.39634     10.43466        -0.411791      0.027399     -0.006501
O     11.90042     11.90042     19.56718        -0.267170     -0.326854      0.257213
O     19.56718     19.56718     19.56718         0.278508      0.292295      0.283085
O     19.56718     11.90042     11.90042         0.301313     -0.299996     -0.202950
O     11.90042     19.56718     11.90042        -0.265081      0.285061     -0.249485
O      9.45224      1.03696      9.45224        -0.080746      0.047972     -0.058737
O      1.03696      9.45224      9.45224         0.043173     -0.153369     -0.115226
O      1.03696      1.03696      1.03696         0.026326      0.120957      0.194661
O      9.45224      9.45224      1.03696        -0.069893     -0.088516      0.115819
Zr     10.48920      2.52580     10.48920        -0.051416     -0.123800     -0.170182
Zr     10.48920     18.45260     10.48920         0.009686      0.217235     -0.022754
Zr     10.48920     10.48920      2.52580        -0.167186     -0.195620     -0.508518
Zr     10.48920     10.48920     18.45260         0.001572     -0.009465      0.431680
Zr      2.52580     10.48920     10.48920        -0.368668      0.299821      0.181423
Zr     18.45260     10.48920     10.48920         0.205397      0.061607     -0.201825
Pd      8.30629      9.67603     13.24248        -0.014430      0.026108      0.023345
Pd     10.49316      9.44666     10.18709        -0.055151     -0.020642      0.009338
Pd     13.01282      8.78149     12.46647        -0.013522      0.010727      0.012199
Pd     10.29475     10.79127     15.05837         0.011013      0.032371     -0.032033
Pd     12.81072     11.36031     13.57427        -0.041860      0.006395     -0.004882
Pd     14.85019     10.60012     11.36091         0.005639     -0.005989      0.014200
Pd      6.88475      7.50147     12.29263        -0.002487     -0.023563      0.007690
Pd      9.20865      7.19550      9.44583         0.003350      0.013145      0.037489
Pd      9.57741      7.54097     12.19758         0.017210     -0.000945     -0.000333
Pd     11.75648      7.08372     10.80285        -0.014362     -0.009217     -0.012555
Pd     11.63064      7.82580      8.26165        -0.027500     -0.015033     -0.000797
Pd      7.16602     11.67864     11.51448         0.020190     -0.009228      0.019213
Pd      9.29221     14.31636      9.25557        -0.014841     -0.000694     -0.000670
Pd      8.13791     12.29325     14.00364        -0.011288     -0.000783      0.028236
Pd     14.24169     14.17995      8.34879        -0.017422     -0.001679      0.003900
Pd     11.74452     13.28811      8.79309         0.023216      0.010842      0.006373
Pd     14.12454     11.60737      9.00858        -0.031753     -0.015677      0.004592
Pd      8.71273     13.98651     12.00521        -0.040725      0.023512     -0.015644
Pd     12.22899     13.99973     13.94853        -0.030961      0.007828     -0.012745
Pd     11.41282     14.14330     11.29455         0.005367      0.001938     -0.014348
Pd     14.00516     13.29348     12.09708         0.008065     -0.033398     -0.011253
Pd     12.27182     11.51377     10.90207         0.014988     -0.025393      0.017794
Pd     13.03061     12.59459      6.59263        -0.017526      0.014997      0.014436
Pd     13.96704      8.83510      7.57544         0.005811      0.001702      0.000422
Pd      6.96383      8.46206      8.36568         0.011427     -0.017260      0.028411
Pd      5.55356     10.02635     10.05428         0.002260     -0.011442      0.003919
Pd      9.39970      9.45997      7.44453         0.000183     -0.007412      0.005980
Pd      8.47496      6.97656      6.85438        -0.002659     -0.017561     -0.014554
Pd      9.66945     11.94897     10.52784        -0.037098     -0.033203     -0.070131
Pd     11.80686     10.60973      8.05355        -0.028738      0.010454      0.005044
Pd     11.79293      8.92694      5.85596        -0.001218     -0.002334     -0.018897
Pd     10.63189     11.33586      5.73073        -0.014301      0.009886      0.039968
Ir     10.75447      9.84029     12.69168         0.019734      0.031689      0.025864
Ir     13.14733      9.24646      9.94800         0.011690     -0.006482      0.016590
Ir     10.49358     12.29802     12.89365         0.013876     -0.053996      0.050842
Ir      7.76446     10.97344      9.05226         0.039726      0.002746      0.024687
Ir      9.58959     12.05613      7.96303        -0.024857     -0.029581     -0.007384
Ir      8.00606      9.17478     10.72050         0.028545      0.007890     -0.009943
