38
# total energy = -255.12901914 eVH      1.22560      6.94200      7.50000        -0.010907      0.020224      0.000000
H      8.09919      6.77074      7.50000         0.011237     -0.007667     -0.000000
H      4.45936     13.86490      7.50000         0.000396     -0.006247      0.000000
H     12.67422      2.18112      7.50000         0.010907     -0.020224      0.000000
H      5.80062      2.35238      7.50000        -0.011237      0.007667     -0.000000
H      9.44045     -4.74178      7.50000        -0.000396      0.006247      0.000000
H      5.81383     -2.34475      7.50000        -0.007725     -0.016916      0.000000
H      9.44161      4.72693      7.50000        -0.008158     -0.006781      0.000000
H     12.66453     -2.17421      7.50000         0.009241      0.006649      0.000000
H      8.08598     11.46788      7.50000         0.007725      0.016916      0.000000
H      4.45820      4.39619      7.50000         0.008158      0.006781      0.000000
H      1.23528     11.29733      7.50000        -0.009241     -0.006649      0.000000
C      7.73656     -3.36874      7.50000        -0.020503     -0.025077      0.000000
C     12.48139      0.00337      7.50000         0.011864     -0.004284     -0.000000
C      7.72954      3.36348      7.50000        -0.008136      0.018653     -0.000000
C      6.16325     12.49186      7.50000         0.020503      0.025077      0.000000
C      1.41842      9.11975      7.50000        -0.011864      0.004284      0.000000
C      6.17027      5.75964      7.50000         0.008136     -0.018653     -0.000000
C     13.20751     -1.22674      7.50000         0.005415      0.009660      0.000000
C      8.35159      4.64268      7.50000         0.002446     -0.010874     -0.000000
C      6.31486     -3.31586      7.50000        -0.004121      0.011191      0.000000
C      0.69230     10.34986      7.50000        -0.005415     -0.009660     -0.000000
C      5.54823      4.48044      7.50000        -0.002446      0.010874      0.000000
C      7.58495     12.43898      7.50000         0.004121     -0.011191      0.000000
C      5.54866     13.77458      7.50000        -0.001220     -0.006605     -0.000000
C      7.59187      5.80318      7.50000         0.006417      0.011315      0.000000
C      0.68772      7.89279      7.50000        -0.004457      0.000991     -0.000000
C      8.35115     -4.65146      7.50000         0.001220      0.006605     -0.000000
C      6.30794      3.31994      7.50000        -0.006417     -0.011315      0.000000
C     13.21209      1.23033      7.50000         0.004457     -0.000991     -0.000000
N      5.85265      9.13091      7.50000         0.021907      0.001537     -0.000000
N      8.04716     -0.00779      7.50000        -0.021907     -0.001537     -0.000000
Ir      8.77195      1.64617      7.50000         0.009522      0.026340     -0.000000
Ir      8.78345     -1.65703      7.50000         0.005741     -0.023728      0.000000
Ir     10.54830      0.00061      7.50000        -0.001807      0.007236      0.000000
Ir      5.12786      7.47695      7.50000        -0.009522     -0.026340     -0.000000
Ir      5.11636     10.78015      7.50000        -0.005741      0.023728     -0.000000
Ir      3.35152      9.12251      7.50000         0.001807     -0.007236      0.000000
