26
# total energy = -167.97686439 eVH      3.22531      7.04912      0.00000        -0.013173     -0.192198     -0.000000
H      6.00732      2.18351     -0.00000         0.013173      0.192198      0.000000
H      2.18351      3.22531      0.00000         0.192198     -0.013173     -0.000000
H      7.04912      6.00732     -0.00000        -0.192198      0.013173      0.000000
H      6.00732      7.04912     -0.00000         0.013173     -0.192198      0.000000
H      3.22531      2.18351      0.00000        -0.013173      0.192198     -0.000000
H      7.04912      3.22531     -0.00000        -0.192198     -0.013173      0.000000
H      2.18351      6.00732      0.00000         0.192198      0.013173     -0.000000
C      8.50987      1.74221     -0.00000         0.194130     -0.151694      0.000000
C      0.72276      7.49042      0.00000        -0.194130      0.151694      0.000000
C      7.49042      8.50987      0.00000         0.151694      0.194130     -0.000000
C      1.74221      0.72276      0.00000        -0.151694     -0.194130     -0.000000
C      0.72276      1.74221      0.00000        -0.194130     -0.151694     -0.000000
C      8.50987      7.49042     -0.00000         0.194130      0.151694      0.000000
C      1.74221      8.50987     -0.00000        -0.151694      0.194130      0.000000
C      7.49042      0.72276      0.00000         0.151694     -0.194130     -0.000000
N      8.02995      3.03064      0.00000         0.265958      0.296381      0.000000
N      1.20268      6.20199      0.00000        -0.265958     -0.296381     -0.000000
N      6.20199      8.02995     -0.00000        -0.296381      0.265958     -0.000000
N      3.03064      1.20268      0.00000         0.296381     -0.265958     -0.000000
N      1.20268      3.03064      0.00000        -0.265958      0.296381     -0.000000
N      8.02995      6.20199     -0.00000         0.265958     -0.296381     -0.000000
N      3.03064      8.02995     -0.00000         0.296381      0.265958      0.000000
N      6.20199      1.20268     -0.00000        -0.296381     -0.265958     -0.000000
Au      0.00000      4.61632     -0.00000        -0.000000     -0.000000     -0.000000
Au      4.61632      0.00000     -0.00000        -0.000000     -0.000000     -0.000000
