152
# total energy = -1024.14492076 eVH     10.35389      5.87395      7.64558         0.547908      0.060906      0.784232
H     10.62451     15.10445      7.64558         0.019599     -0.169467      0.548365
H     10.62451      5.87395     13.33282         0.144712      0.159160     -0.650030
H     10.35389     15.10445     13.33282        -0.354829     -0.070328     -0.721940
H      7.64558     10.35389      5.87395         0.325330     -0.010130      0.189147
H      7.64558     10.62451     15.10445         0.947853     -0.362023     -0.003298
H     13.33282     10.62451      5.87395        -0.741969     -0.000739      0.182339
H     13.33282     10.35389     15.10445        -0.862628     -0.365121      0.179587
H      5.87395      7.64558     10.35389         0.213036      0.650406     -0.024848
H     15.10445      7.64558     10.62451        -0.146378      0.406222     -0.044623
H      5.87395     13.33282     10.62451         0.171175     -0.491608     -0.088283
H     15.10445     13.33282     10.35389        -0.112005     -1.105216      0.014391
H      5.87395     10.35389      7.64558         0.143874      0.113987      0.458550
H     15.10445     10.62451      7.64558         0.061102      0.124592      1.076160
H      5.87395     10.62451     13.33282         0.106650     -0.027015     -0.391456
H     15.10445     10.35389     13.33282        -0.083588     -0.153998     -0.632286
H     10.35389      7.64558      5.87395         0.085356      0.867368      0.206582
H     10.62451      7.64558     15.10445         0.016885      0.288547     -0.179151
H     10.62451     13.33282      5.87395        -0.053418     -0.546604      0.271858
H     10.35389     13.33282     15.10445        -0.490761     -0.690849     -0.050692
H      7.64558      5.87395     10.35389         0.468833      0.116071      0.056681
H      7.64558     15.10445     10.62451         0.841013     -0.276710      0.000100
H     13.33282      5.87395     10.62451        -0.514703      0.170524     -0.068595
H     13.33282     15.10445     10.35389        -0.632114     -0.059756      0.217455
H     12.45634     12.45634     19.01126         0.240647      0.279161     -0.230638
H     19.01126     19.01126     19.01126        -0.254617     -0.240550     -0.248237
H     19.01126     12.45634     12.45634        -0.254156      0.273208      0.223023
H     12.45634     19.01126     12.45634         0.227017     -0.262464      0.245003
C     10.35284      5.61067      6.59456        -0.163980     -0.600745      0.050321
C     10.62556     15.36773      6.59456         0.003419      0.435819     -0.751215
C     10.62556      5.61067     14.38384        -0.043906     -0.102786      0.776606
C     10.35284     15.36773     14.38384         0.138704      0.687902      0.212356
C      6.59456     10.35284      5.61067        -0.385902     -0.030830     -0.250221
C      6.59456     10.62556     15.36773        -1.056831      0.374908      0.406958
C     14.38384     10.62556      5.61067         0.403284      0.291995     -0.588336
C     14.38384     10.35284     15.36773         0.999916     -0.033095      0.398774
C      5.61067      6.59456     10.35284        -0.381213     -0.497271      0.243029
C     15.36773      6.59456     10.62556         0.183075     -0.530822      0.028309
C      5.61067     14.38384     10.62556        -0.137416      0.503129     -0.001171
C     15.36773     14.38384     10.35284         0.351230     -0.044362     -0.131715
C      5.61067     10.35284      6.59456        -0.289137     -0.048784     -0.840304
C     15.36773     10.62556      6.59456         0.696435     -0.321511     -1.148200
C      5.61067     10.62556     14.38384        -0.517811     -0.014748      0.225840
C     15.36773     10.35284     14.38384         0.663448     -0.124773      1.140488
C     10.35284      6.59456      5.61067        -0.259690     -0.455088     -0.783037
C     10.62556      6.59456     15.36773         0.051019     -0.290910      0.119261
C     10.62556     14.38384      5.61067         0.156464      1.138864     -0.409392
C     10.35284     14.38384     15.36773         0.206514      0.168861      0.657169
C      6.59456      5.61067     10.35284        -0.367438     -0.746164      0.059965
C      6.59456     15.36773     10.62556        -1.246776      0.300773      0.072359
C     14.38384      5.61067     10.62556         0.765226     -0.255869      0.020699
C     14.38384     15.36773     10.35284        -0.520989      0.732978     -0.338256
C     10.40319      3.19606      7.29314        -0.010285      0.867860     -0.396413
C     10.35913      4.25547      6.23373         0.030896     -0.497281      0.574933
C      0.08601      7.29314      7.29314        -0.008713     -0.488342     -0.396178
C      0.13007      6.23373      6.23373        -0.018807      0.024798      0.097791
C      0.08601      3.19606      3.19606        -0.017993      1.034099      0.188681
C      0.13007      4.25547      4.25547        -0.064670     -0.211655     -0.248078
C     10.40319      7.29314      3.19606        -0.004589     -0.914910      0.470572
C     10.35913      6.23373      4.25547         0.024708      0.466442     -0.621948
C      7.29314     10.40319      3.19606        -0.444173      0.043525      0.832149
C      6.23373     10.35913      4.25547         0.245242      0.091797     -0.117397
C      7.29314      0.08601      7.29314        -0.468382     -0.026276     -0.254529
C      6.23373      0.13007      6.23373         0.411113     -0.061952      0.452509
C      3.19606      0.08601      3.19606         0.740249     -0.018977      0.371222
C      4.25547      0.13007      4.25547        -0.107253     -0.054855     -0.428307
C      3.19606     10.40319      7.29314         0.630523     -0.002518     -0.703969
C      4.25547     10.35913      6.23373        -0.249436      0.108738      0.230799
C      3.19606      7.29314     10.40319         0.505958     -1.321525     -0.034313
C      4.25547      6.23373     10.35913        -0.392962      0.839255      0.041082
C      7.29314      7.29314      0.08601        -0.505851     -0.233944     -0.013052
C      6.23373      6.23373      0.13007         0.171491      0.147145     -0.010405
C      3.19606      3.19606      0.08601         0.245710      0.283293     -0.022009
C      4.25547      4.25547      0.13007        -0.077039     -0.041634      0.016390
C      7.29314      3.19606     10.40319        -0.362168      0.726616      0.016226
C      6.23373      4.25547     10.35913         1.114157      0.067322      0.006085
O     10.43466      3.58206      8.50569        -0.032269      0.041155      0.442360
O     10.54374     17.39634      8.50569        -0.019053     -0.094914      0.465183
O     10.54374      3.58206     12.47271         0.052863     -0.044214     -0.188155
O     10.43466     17.39634     12.47271        -0.044356     -0.075128     -0.541029
O      8.50569     10.43466      3.58206         0.385013     -0.017457     -0.023725
O      8.50569     10.54374     17.39634         0.574619      0.028478     -0.160216
O     12.47271     10.54374      3.58206        -0.662208     -0.024427      0.160921
O     12.47271     10.43466     17.39634        -0.580030     -0.028247     -0.072633
O      3.58206      8.50569     10.43466         0.178723      1.126020     -0.001280
O     17.39634      8.50569     10.54374        -0.055840      0.383832      0.070674
O      3.58206     12.47271     10.54374         0.076221     -0.457712      0.034354
O     17.39634     12.47271     10.43466        -0.156991     -0.725755      0.014394
O      3.58206     10.43466      8.50569         0.005949     -0.071667      0.578110
O     17.39634     10.54374      8.50569        -0.102600      0.041287      0.374935
O      3.58206     10.54374     12.47271         0.033103      0.014562     -0.373200
O     17.39634     10.43466     12.47271        -0.211267      0.023031     -0.722823
O     10.43466      8.50569      3.58206         0.082600      0.813502      0.190279
O     10.54374      8.50569     17.39634         0.063188      0.653485     -0.144247
O     10.54374     12.47271      3.58206        -0.047772     -0.959774      0.245705
O     10.43466     12.47271     17.39634        -0.001735     -0.937737     -0.213355
O      8.50569      3.58206     10.43466         0.513406      0.088214     -0.022840
O      8.50569     17.39634     10.54374         0.601493     -0.235803     -0.031810
O     12.47271      3.58206     10.54374        -0.460432      0.143125      0.054411
O     12.47271     17.39634     10.43466        -0.404273      0.040433     -0.014051
O     11.90042     11.90042     19.56718        -0.269205     -0.332883      0.254282
O     19.56718     19.56718     19.56718         0.287679      0.275631      0.293843
O     19.56718     11.90042     11.90042         0.279504     -0.314050     -0.204428
O     11.90042     19.56718     11.90042        -0.270921      0.287739     -0.262830
O      9.45224      1.03696      9.45224        -0.080961      0.051115     -0.057478
O      1.03696      9.45224      9.45224         0.052766     -0.161022     -0.101870
O      1.03696      1.03696      1.03696         0.013544      0.081249      0.195209
O      9.45224      9.45224      1.03696        -0.056791     -0.082241      0.134236
Zr     10.48920      2.52580     10.48920        -0.021221     -0.088653     -0.149719
Zr     10.48920     18.45260     10.48920         0.064178      0.254972      0.015267
Zr     10.48920     10.48920      2.52580         0.011901     -0.161578     -0.532977
Zr     10.48920     10.48920     18.45260        -0.157312      0.041945      0.474646
Zr      2.52580     10.48920     10.48920        -0.373632      0.295444      0.116402
Zr     18.45260     10.48920     10.48920         0.209036      0.041800     -0.287088
Pd      8.59879      9.88754     13.30970         0.107835     -0.022558     -0.044135
Pd     10.54353      9.51443     10.33606         0.007036      0.036443     -0.137738
Pd     13.44209      8.74094     12.51812         0.058753     -0.045910     -0.013302
Pd     10.69010     10.64668     15.11712        -0.137205     -0.024210      0.014940
Pd     13.01386     11.31449     13.42604        -0.012079      0.020042      0.105766
Pd     14.99237     10.78606     11.28339        -0.085668     -0.045761     -0.026542
Pd      6.73883      7.92466     12.55760        -0.001904      0.035599     -0.054832
Pd      9.26739      7.19850      9.63911         0.022469      0.038821      0.036238
Pd      9.38159      7.47255     12.41246         0.091894      0.059624     -0.089150
Pd     11.68990      7.24032     11.12232         0.079470     -0.044489      0.027068
Pd     11.68767      7.82551      8.48906        -0.082605      0.015653     -0.041226
Pd      7.25116     11.71107     11.62428        -0.060755      0.058080      0.030045
Pd      9.29725     14.49036      9.47763        -0.058257      0.040675      0.021308
Pd      8.14516     12.38014     14.21522         0.088470      0.071849     -0.015329
Pd     14.16250     14.21284      8.34023         0.036073     -0.013431     -0.029912
Pd     11.67493     13.42117      8.88891        -0.028548      0.042797      0.028752
Pd     14.04874     11.63290      8.92533         0.089836      0.047112      0.024551
Pd      8.75298     13.91639     12.16770         0.098720     -0.058379     -0.022649
Pd     12.20348     13.81506     14.05309         0.000803      0.020447     -0.041010
Pd     11.42043     14.09669     11.45886        -0.034068     -0.025078     -0.033207
Pd     14.06610     13.46530     12.15741        -0.015898     -0.031011      0.013021
Pd     12.35110     11.64395     10.92098         0.028582      0.042606     -0.039352
Pd     12.80267     12.63541      6.63815        -0.019922     -0.046121     -0.029114
Pd     13.93688      8.90701      7.68136         0.034326      0.037193     -0.088880
Pd      6.99373      8.42942      8.55796        -0.046798     -0.075241     -0.065420
Pd      5.62296     10.04230     10.25461        -0.173970     -0.029445      0.023286
Pd      9.39359      9.36603      7.66921        -0.006126      0.127267     -0.004985
Pd      8.49160      6.88449      7.04944        -0.039961      0.035496     -0.076177
Pd      9.72300     11.97019     10.56916        -0.039197     -0.034707     -0.143901
Pd     11.63176     10.73361      8.19769         0.027505     -0.084807      0.008672
Pd     11.68816      9.04828      6.09014         0.013921     -0.031576     -0.085895
Pd     10.24269     11.31697      5.91275         0.047980      0.039385     -0.035640
Ir     11.06355      9.54318     12.78244        -0.050631     -0.008207      0.127963
Ir     13.18938      9.34667     10.05309        -0.047772     -0.001005     -0.013891
Ir     10.50735     12.02020     12.94433        -0.030593      0.145901      0.007896
Ir      7.77582     10.94557      9.12072         0.073999      0.198736     -0.190351
Ir      9.38442     12.32551      8.05370        -0.071080     -0.254205      0.082176
Ir      8.10140      9.23748     10.85687        -0.036746     -0.193407      0.219970
