152
# total energy = -1022.82165757 eVH     10.35389      5.87395      7.64558         0.476862      0.031773      0.912411
H     10.62451     15.10445      7.64558        -0.043291      0.037831      0.763972
H     10.62451      5.87395     13.33282         0.142964      0.115737     -0.603805
H     10.35389     15.10445     13.33282        -0.268024     -0.077107     -0.567087
H      7.64558     10.35389      5.87395         0.334195     -0.037689      0.191240
H      7.64558     10.62451     15.10445         0.615867     -0.186545     -0.141895
H     13.33282     10.62451      5.87395        -0.861666     -0.323532      0.166349
H     13.33282     10.35389     15.10445        -0.468521     -0.092072     -0.061314
H      5.87395      7.64558     10.35389         0.124063      1.133078     -0.142996
H     15.10445      7.64558     10.62451        -0.169703      0.402999     -0.085905
H      5.87395     13.33282     10.62451         0.143138     -0.407516     -0.071600
H     15.10445     13.33282     10.35389        -0.077395     -0.967738     -0.199712
H      5.87395     10.35389      7.64558         0.129574      0.038175      0.481137
H     15.10445     10.62451      7.64558         0.131479     -0.219064      0.802885
H      5.87395     10.62451     13.33282         0.270303     -0.028380     -0.395882
H     15.10445     10.35389     13.33282        -0.143924      0.011387     -0.623393
H     10.35389      7.64558      5.87395         0.069466      0.835657      0.120243
H     10.62451      7.64558     15.10445         0.027323      0.562052     -0.146516
H     10.62451     13.33282      5.87395         0.071913     -0.604000      0.183132
H     10.35389     13.33282     15.10445        -0.249983     -0.889109     -0.109358
H      7.64558      5.87395     10.35389         0.526997      0.037346     -0.138153
H      7.64558     15.10445     10.62451         0.912763     -0.210659      0.298368
H     13.33282      5.87395     10.62451        -0.435829      0.187415     -0.058438
H     13.33282     15.10445     10.35389        -0.998012     -0.099587      0.245858
H     12.45634     12.45634     19.01126         0.267352      0.257603     -0.224193
H     19.01126     19.01126     19.01126        -0.247621     -0.234987     -0.262494
H     19.01126     12.45634     12.45634        -0.241574      0.270212      0.238927
H     12.45634     19.01126     12.45634         0.210937     -0.283322      0.252851
C     10.35284      5.61067      6.59456        -0.131264     -0.426450     -0.422245
C     10.62556     15.36773      6.59456         0.020747      0.346652     -1.145818
C     10.62556      5.61067     14.38384        -0.025578     -0.222937      0.722127
C     10.35284     15.36773     14.38384         0.190074      0.771941      0.137160
C      6.59456     10.35284      5.61067        -0.422860     -0.041302     -0.183553
C      6.59456     10.62556     15.36773        -0.785781      0.148958      0.350740
C     14.38384     10.62556      5.61067         0.643533      0.281088     -0.364841
C     14.38384     10.35284     15.36773         0.739444     -0.123733      0.428788
C      5.61067      6.59456     10.35284        -0.427346     -0.771374      0.270498
C     15.36773      6.59456     10.62556         0.196938     -0.470203      0.045644
C      5.61067     14.38384     10.62556        -0.255046      0.380376     -0.023026
C     15.36773     14.38384     10.35284         0.402263      0.142441      0.188944
C      5.61067     10.35284      6.59456        -0.308011     -0.012235     -0.889737
C     15.36773     10.62556      6.59456         0.566886     -0.147260     -1.233925
C      5.61067     10.62556     14.38384        -0.464132      0.007749      0.905514
C     15.36773     10.35284     14.38384         0.530955     -0.174986      1.248307
C     10.35284      6.59456      5.61067        -0.036808     -0.910993     -0.675791
C     10.62556      6.59456     15.36773         0.043832     -0.668097      0.300282
C     10.62556     14.38384      5.61067         0.042337      1.259581     -0.691967
C     10.35284     14.38384     15.36773         0.091546      0.595030      0.665931
C      6.59456      5.61067     10.35284        -0.226134     -0.896542      0.127643
C      6.59456     15.36773     10.62556        -1.729848      0.495324      0.043216
C     14.38384      5.61067     10.62556         0.579634     -0.223659     -0.007377
C     14.38384     15.36773     10.35284         0.164533      0.554941     -0.241373
C     10.40319      3.19606      7.29314         0.016724      0.920560     -0.253330
C     10.35913      4.25547      6.23373        -0.052410     -0.363102      0.623261
C      0.08601      7.29314      7.29314        -0.008957     -0.236658     -0.471921
C      0.13007      6.23373      6.23373         0.002276      0.116838      0.206943
C      0.08601      3.19606      3.19606        -0.016624      0.647254      0.179248
C      0.13007      4.25547      4.25547        -0.090847     -0.199171     -0.170151
C     10.40319      7.29314      3.19606        -0.000782     -0.692517      0.529160
C     10.35913      6.23373      4.25547        -0.004469      0.524120     -0.385623
C      7.29314     10.40319      3.19606        -0.347136      0.023281      0.850202
C      6.23373     10.35913      4.25547         0.211971      0.015221     -0.144050
C      7.29314      0.08601      7.29314        -0.308553     -0.046532     -0.268919
C      6.23373      0.13007      6.23373         0.265703     -0.059366      0.293390
C      3.19606      0.08601      3.19606         0.434543     -0.052738      1.300208
C      4.25547      0.13007      4.25547        -0.116749     -0.028214     -0.461686
C      3.19606     10.40319      7.29314         0.712896      0.015384     -0.263882
C      4.25547     10.35913      6.23373        -0.137620      0.034227      0.109542
C      3.19606      7.29314     10.40319         0.603008     -1.263343      0.026514
C      4.25547      6.23373     10.35913        -0.718270      0.836186      0.047627
C      7.29314      7.29314      0.08601        -0.660672     -0.169265     -0.022871
C      6.23373      6.23373      0.13007         0.172041      0.270259     -0.009779
C      3.19606      3.19606      0.08601         0.241213      0.250268     -0.019824
C      4.25547      4.25547      0.13007        -0.052299     -0.036410      0.012497
C      7.29314      3.19606     10.40319        -0.372587      0.786267      0.016029
C      6.23373      4.25547     10.35913         0.873788     -0.160554      0.011724
O     10.43466      3.58206      8.50569        -0.050187      0.029599      0.316474
O     10.54374     17.39634      8.50569        -0.024458     -0.182905      0.605308
O     10.54374      3.58206     12.47271         0.055322      0.061399     -0.322583
O     10.43466     17.39634     12.47271        -0.024202     -0.124787     -0.581736
O      8.50569     10.43466      3.58206         0.385997     -0.023683     -0.011093
O      8.50569     10.54374     17.39634         0.469963      0.053607     -0.142897
O     12.47271     10.54374      3.58206        -0.283153      0.049730     -0.078029
O     12.47271     10.43466     17.39634        -0.857034      0.021230     -0.223720
O      3.58206      8.50569     10.43466         0.040842      0.915842      0.039517
O     17.39634      8.50569     10.54374        -0.038232      0.336771      0.078011
O      3.58206     12.47271     10.54374         0.064043     -0.420084      0.063729
O     17.39634     12.47271     10.43466        -0.169748     -0.772562      0.018712
O      3.58206     10.43466      8.50569        -0.057094     -0.066565      0.224582
O     17.39634     10.54374      8.50569        -0.136319      0.042291      0.457729
O      3.58206     10.54374     12.47271        -0.020085     -0.051930     -0.890191
O     17.39634     10.43466     12.47271        -0.197522      0.041231     -0.761770
O     10.43466      8.50569      3.58206         0.044625      0.684199      0.192176
O     10.54374      8.50569     17.39634         0.053936      0.431292     -0.078160
O     10.54374     12.47271      3.58206        -0.009162     -0.730178      0.228148
O     10.43466     12.47271     17.39634         0.050536     -0.858018     -0.276289
O      8.50569      3.58206     10.43466         0.493604      0.077699     -0.038722
O      8.50569     17.39634     10.54374         0.657503     -0.253653     -0.061426
O     12.47271      3.58206     10.54374        -0.486754      0.163564      0.039755
O     12.47271     17.39634     10.43466        -0.527890     -0.039319     -0.030375
O     11.90042     11.90042     19.56718        -0.304612     -0.312128      0.263465
O     19.56718     19.56718     19.56718         0.287333      0.271456      0.321013
O     19.56718     11.90042     11.90042         0.280559     -0.330477     -0.244614
O     11.90042     19.56718     11.90042        -0.228260      0.290686     -0.240858
O      9.45224      1.03696      9.45224        -0.074342      0.048954     -0.066863
O      1.03696      9.45224      9.45224         0.056206     -0.145585     -0.056617
O      1.03696      1.03696      1.03696         0.043702      0.032502      0.187420
O      9.45224      9.45224      1.03696        -0.039328     -0.092492      0.122186
Zr     10.48920      2.52580     10.48920        -0.007704     -0.074102     -0.021974
Zr     10.48920     18.45260     10.48920         0.059163      0.308368     -0.071782
Zr     10.48920     10.48920      2.52580        -0.102486      0.012778     -0.373358
Zr     10.48920     10.48920     18.45260        -0.137586     -0.160832      0.328285
Zr      2.52580     10.48920     10.48920        -0.346164      0.317899     -0.465758
Zr     18.45260     10.48920     10.48920         0.238144      0.039671     -0.261245
Pd      9.04327     10.26809     13.34043        -0.015760     -0.003814      0.001083
Pd     10.58804      9.72937     10.99528         0.005881     -0.005843     -0.066378
Pd     13.75865      8.55373     12.68054         0.019183      0.000796     -0.008026
Pd     11.00056     11.08119     15.03430        -0.002670     -0.031513     -0.042429
Pd     12.86539     11.19754     13.04098         0.022551      0.013289      0.007985
Pd     14.97487     10.93399     11.34243         0.006657      0.017128     -0.007742
Pd      6.66087      7.43729     12.33745        -0.003742      0.022299      0.004663
Pd      9.22144      7.26627     10.13856         0.005298      0.008527     -0.027497
Pd      9.27126      7.61767     12.80685         0.003428     -0.009597     -0.019172
Pd     11.69670      7.29251     11.46716         0.003921      0.002545     -0.012716
Pd     11.38046      7.99770      8.86045         0.040615     -0.004835      0.002132
Pd      7.26033     11.84040     11.96459         0.005598     -0.005570     -0.025612
Pd      8.90654     14.67736      9.33937         0.035425      0.028262      0.021623
Pd      8.41837     12.66591     14.32905         0.006694     -0.013852     -0.026099
Pd     13.51877     14.08134      8.56335         0.092567      0.035035     -0.046672
Pd     10.98064     13.33368      8.52319         0.084927      0.037908      0.037673
Pd     14.08223     11.51246      8.92365         0.004440      0.050929     -0.003942
Pd      8.62644     14.11175     12.10361         0.021348     -0.021534      0.011888
Pd     12.24498     13.75222     14.02730        -0.019545     -0.019545     -0.008770
Pd     11.16908     14.42851     11.15083         0.017333     -0.021256      0.054729
Pd     14.05914     13.55880     12.17182        -0.010475      0.008800     -0.003038
Pd     12.31420     12.13943     10.68181        -0.006411     -0.016007      0.013404
Pd     12.65266     12.31655      6.71680         0.020801      0.051629     -0.010539
Pd     13.64103      8.93404      7.91703         0.051934     -0.000401     -0.023520
Pd      6.85904      8.46773      8.86103         0.019730      0.018969     -0.006984
Pd      5.52808      9.93324     11.27038         0.018407      0.042430     -0.058897
Pd      9.13519      9.75510      8.30223         0.028274     -0.030484     -0.013209
Pd      8.82385      7.24238      7.48113        -0.015921     -0.014919     -0.044593
Pd      9.52638     12.08375     10.43220         0.030544      0.003264      0.024399
Pd     11.52298     10.70895      8.58001         0.015086      0.019854     -0.018243
Pd     11.23049      9.25378      6.43908         0.036056     -0.039458     -0.033657
Pd      9.88930     11.56415      6.37985         0.030856     -0.029090     -0.030463
Ir     11.35805      9.11494     13.36768        -0.014986      0.018635     -0.002896
Ir     13.07341      9.47726     10.38657        -0.006689     -0.019819      0.027329
Ir     10.54034     12.35961     12.71610        -0.023123      0.005141      0.028915
Ir      7.14117     10.98822      9.51049         0.016966     -0.002711      0.015817
Ir      8.40915     12.46396      8.19346         0.027047      0.017361     -0.019738
Ir      8.06953      9.30976     11.12196        -0.007156      0.009712      0.008654
