152
# total energy = -1004.32865457 eVH     10.35389      5.87395      7.64558        -0.150846      0.187932      0.648159
H     10.62451     15.10445      7.64558        -0.263989     -0.137443      0.646624
H     10.62451      5.87395     13.33282         0.450539      0.040376     -0.947246
H     10.35389     15.10445     13.33282         0.065673     -0.186293     -0.534821
H      7.64558     10.35389      5.87395         0.390883      0.060986      0.126072
H      7.64558     10.62451     15.10445         0.782299      0.555414     -0.013185
H     13.33282     10.62451      5.87395        -0.450644     -0.002550      0.240978
H     13.33282     10.35389     15.10445        -0.773762     -0.213402      0.027661
H      5.87395      7.64558     10.35389         0.103308      1.918994      0.196454
H     15.10445      7.64558     10.62451        -0.087890      0.501282      0.219529
H      5.87395     13.33282     10.62451         0.209905     -0.641816     -0.022445
H     15.10445     13.33282     10.35389         0.221595     -1.428437     -0.368326
H      5.87395     10.35389      7.64558         0.106559      0.047799      0.539432
H     15.10445     10.62451      7.64558        -0.165167      0.991666      1.410025
H      5.87395     10.62451     13.33282        -0.073931      0.509292     -1.322503
H     15.10445     10.35389     13.33282         0.123029     -0.194161     -0.767055
H     10.35389      7.64558      5.87395         0.323409      1.315376      0.162968
H     10.62451      7.64558     15.10445         0.569251      0.814606     -0.082943
H     10.62451     13.33282      5.87395        -0.611196     -0.803336      0.233412
H     10.35389     13.33282     15.10445        -0.195769     -0.527964     -0.324613
H      7.64558      5.87395     10.35389         1.182534     -0.236878     -0.102379
H      7.64558     15.10445     10.62451         0.794274     -0.204206     -0.030758
H     13.33282      5.87395     10.62451        -0.599995      0.114122      0.649667
H     13.33282     15.10445     10.35389        -0.445912     -0.021670     -0.170669
H     12.45634     12.45634     19.01126         0.272733      0.246523     -0.232492
H     19.01126     19.01126     19.01126        -0.266100     -0.270732     -0.217357
H     19.01126     12.45634     12.45634        -0.276366      0.253076      0.231273
H     12.45634     19.01126     12.45634         0.252015     -0.281130      0.230520
C     10.35284      5.61067      6.59456        -0.140444     -0.812819     -0.532820
C     10.62556     15.36773      6.59456         0.106805      0.345256     -0.211197
C     10.62556      5.61067     14.38384        -0.063323     -0.564471      0.611425
C     10.35284     15.36773     14.38384        -0.002817      0.246770      0.523260
C      6.59456     10.35284      5.61067        -0.591887      0.073277     -0.403837
C      6.59456     10.62556     15.36773        -0.977757      0.230672      0.727018
C     14.38384     10.62556      5.61067         0.765798      0.039925     -0.934705
C     14.38384     10.35284     15.36773         0.927585     -0.115320      0.427796
C      5.61067      6.59456     10.35284        -0.931379     -1.104564     -0.420464
C     15.36773      6.59456     10.62556         0.684525      0.047281     -0.256370
C      5.61067     14.38384     10.62556        -0.238463      0.739732      0.018592
C     15.36773     14.38384     10.35284         0.299909      1.386774     -0.006099
C      5.61067     10.35284      6.59456        -0.275620      0.023520     -0.710196
C     15.36773     10.62556      6.59456         0.427004     -0.363236     -1.047662
C      5.61067     10.62556     14.38384        -0.362785     -0.005082      1.107682
C     15.36773     10.35284     14.38384         0.415730     -0.053557      0.859624
C     10.35284      6.59456      5.61067        -0.064997     -1.006124     -0.378068
C     10.62556      6.59456     15.36773         0.061969     -0.706213      0.534794
C     10.62556     14.38384      5.61067         0.144823      1.019192     -0.422129
C     10.35284     14.38384     15.36773        -0.018890      0.943472      0.474883
C      6.59456      5.61067     10.35284        -0.614980     -1.320830      0.088168
C      6.59456     15.36773     10.62556        -0.919201      0.165915      0.105887
C     14.38384      5.61067     10.62556        -0.103005     -0.514618     -0.340676
C     14.38384     15.36773     10.35284         0.175574      0.665264     -0.068198
C     10.40319      3.19606      7.29314         0.005407      0.760126     -0.672395
C     10.35913      4.25547      6.23373         0.015576     -0.533179      0.108928
C      0.08601      7.29314      7.29314        -0.020413     -1.015326     -0.258177
C      0.13007      6.23373      6.23373        -0.054455      0.414487      0.387663
C      0.08601      3.19606      3.19606         0.047930      1.226436      0.193027
C      0.13007      4.25547      4.25547        -0.011240     -0.385795     -0.457790
C     10.40319      7.29314      3.19606        -0.009498     -0.551506      0.222463
C     10.35913      6.23373      4.25547        -0.020059      0.127895     -0.686608
C      7.29314     10.40319      3.19606        -0.377412      0.024480      0.306782
C      6.23373     10.35913      4.25547         0.218084      0.077262     -0.100504
C      7.29314      0.08601      7.29314        -1.105175     -0.081713     -0.384853
C      6.23373      0.13007      6.23373         0.636405     -0.185178      0.371960
C      3.19606      0.08601      3.19606         1.138010     -0.019703      0.303024
C      4.25547      0.13007      4.25547        -0.582061     -0.156274     -0.206305
C      3.19606     10.40319      7.29314         0.553907      0.031901     -0.255312
C      4.25547     10.35913      6.23373        -0.224426      0.087208      0.210402
C      3.19606      7.29314     10.40319         0.319291     -0.608363      0.038899
C      4.25547      6.23373     10.35913        -1.083576      0.047168      0.180339
C      7.29314      7.29314      0.08601        -0.491892     -0.468698     -0.022076
C      6.23373      6.23373      0.13007         0.506246      0.309254      0.027739
C      3.19606      3.19606      0.08601         0.606292      0.433816     -0.022617
C      4.25547      4.25547      0.13007        -0.080408     -0.758930     -0.103944
C      7.29314      3.19606     10.40319        -0.412629      0.494165      0.048769
C      6.23373      4.25547     10.35913         0.577137     -0.764769      0.186452
O     10.43466      3.58206      8.50569         0.037527      0.156365      0.585277
O     10.54374     17.39634      8.50569         0.049546     -0.030412      0.303617
O     10.54374      3.58206     12.47271         0.001035     -0.059655     -0.196364
O     10.43466     17.39634     12.47271        -0.038236     -0.113899     -0.406829
O      8.50569     10.43466      3.58206         0.521715     -0.039061      0.122646
O      8.50569     10.54374     17.39634         0.842149     -0.076110     -0.166020
O     12.47271     10.54374      3.58206        -0.865737      0.136433      0.130722
O     12.47271     10.43466     17.39634        -0.618462      0.029735     -0.173898
O      3.58206      8.50569     10.43466         0.173806      0.701237     -0.022775
O     17.39634      8.50569     10.54374        -0.140862      0.650840      0.022535
O      3.58206     12.47271     10.54374         0.107984     -0.550584      0.056191
O     17.39634     12.47271     10.43466        -0.171466     -0.593303     -0.050008
O      3.58206     10.43466      8.50569         0.086013     -0.042570      0.395607
O     17.39634     10.54374      8.50569         0.047470      0.095796      0.352584
O      3.58206     10.54374     12.47271        -0.012690      0.035127     -0.250272
O     17.39634     10.43466     12.47271        -0.133864     -0.029825     -0.482830
O     10.43466      8.50569      3.58206        -0.032588      0.621087      0.179015
O     10.54374      8.50569     17.39634        -0.094426      0.815694     -0.187419
O     10.54374     12.47271      3.58206         0.110857     -0.963200      0.171537
O     10.43466     12.47271     17.39634         0.045068     -0.605144     -0.126777
O      8.50569      3.58206     10.43466         0.582729      0.146592     -0.050989
O      8.50569     17.39634     10.54374         0.585015     -0.161350      0.014065
O     12.47271      3.58206     10.54374        -0.727192      0.144502      0.010981
O     12.47271     17.39634     10.43466        -0.504256     -0.116013     -0.031150
O     11.90042     11.90042     19.56718        -0.327103     -0.272051      0.243677
O     19.56718     19.56718     19.56718         0.296214      0.321262      0.209894
O     19.56718     11.90042     11.90042         0.345781     -0.278289     -0.247890
O     11.90042     19.56718     11.90042        -0.279753      0.352498     -0.233025
O      9.45224      1.03696      9.45224        -0.029354      0.095655     -0.131673
O      1.03696      9.45224      9.45224         0.057205     -0.023203     -0.120970
O      1.03696      1.03696      1.03696         0.062460      0.098095      0.098805
O      9.45224      9.45224      1.03696        -0.041245     -0.029185      0.086189
Zr     10.48920      2.52580     10.48920        -0.080680     -0.233052      0.124879
Zr     10.48920     18.45260     10.48920         0.034596      0.059612      0.102716
Zr     10.48920     10.48920      2.52580        -0.317481     -0.298629     -0.385646
Zr     10.48920     10.48920     18.45260         0.174264     -0.017875      0.391119
Zr      2.52580     10.48920     10.48920        -0.146057     -0.027595     -0.069318
Zr     18.45260     10.48920     10.48920         0.142426     -0.033802      0.127820
Pd     12.79735      8.36690      9.80239         0.047169      0.021288      0.002273
Pd      6.62269      9.57363     10.41725        -0.035487      0.032418      0.051535
Pd      6.92264     11.74126     11.85529         0.028618     -0.070681      0.018571
Pd     12.29364     13.50672      7.22442         0.022705     -0.003049      0.013210
Pd     12.10250      7.92832      7.16760        -0.014889     -0.013862     -0.036484
Pd      8.50391      7.31959      6.89333        -0.014160      0.004756     -0.011893
Pd     11.46290     11.48761      5.66019        -0.007761     -0.014276     -0.058418
Pd     14.49906      8.89903      7.83854         0.025774     -0.019625     -0.028262
Pd      9.82647     11.79746      7.93241         0.015845     -0.013113     -0.033555
Pd      7.07423      7.13810     11.98273         0.081646      0.099969      0.087204
Pd      6.44656      7.54339      8.49067        -0.022298      0.017173     -0.099684
Pd      7.30453      9.26031     13.44735         0.000667     -0.038857      0.025612
Pd     11.42900      6.17053      9.21212        -0.060348     -0.027318      0.012041
Pd      9.96775      9.55645      6.41990        -0.015258     -0.001099      0.028105
Pd      9.10850     13.98102      9.37692        -0.032198      0.005685     -0.007432
Pd     10.92143      7.27863     11.52282        -0.006925      0.036489      0.028724
Pd     10.37797      9.08752      9.12430         0.020579     -0.009852      0.027352
Pd      9.37651     11.52805     10.55054         0.038500      0.015955     -0.033226
Pd      8.90655      7.06126      9.57271        -0.018691      0.002943      0.060218
Pd      9.10915      7.33355     13.62034        -0.032857      0.012479     -0.089020
Pd      8.98576      9.10861     11.40991        -0.073913     -0.033046     -0.043683
Pd     12.26077     10.60585      8.02514         0.051929     -0.046293      0.016753
Pd      7.19094     11.99282      9.16009        -0.038978      0.027240     -0.021115
Pd      8.07000      9.68111      8.24047        -0.012666     -0.011029      0.006537
Pd     14.04184      6.37756      8.50496         0.000057     -0.002235      0.000621
Pd     13.31204      8.46366     12.34006         0.001431     -0.071893      0.002343
Pd      9.11307     11.38420     13.26210        -0.030822     -0.064877      0.034516
Pd     14.00964     12.35759      8.83407         0.000860     -0.081501      0.027246
Pd     13.17466     11.06075     13.10318         0.029272      0.010033     -0.033619
Pd     14.44759     10.33952     10.56514         0.019600      0.028797      0.040931
Pd     11.83184     10.62999     10.79247        -0.007960      0.016469      0.049269
Pd     11.54979     13.09469      9.70402        -0.005475     -0.008361      0.026666
Pd     13.64310     12.98470     11.48340         0.067806      0.000629      0.004628
Pd     11.18270     12.76188     12.35278        -0.038424      0.000290      0.011304
Pd     11.24245     11.54649     14.85525         0.030669      0.023299     -0.006103
Pd     11.01327      9.47288     13.09288        -0.075137      0.019555     -0.010270
Pd      9.47568      9.55361     15.26535        -0.034121      0.016844     -0.031900
Pd      8.76639     13.77703     12.03651         0.011178      0.000527     -0.015574
