152
# total energy = -1022.68978706 eVH     10.35389      5.87395      7.64558         0.455883      0.023663      0.939910
H     10.62451     15.10445      7.64558        -0.005172      0.013001      0.716114
H     10.62451      5.87395     13.33282         0.135804      0.112883     -0.607131
H     10.35389     15.10445     13.33282        -0.274443     -0.070151     -0.552682
H      7.64558     10.35389      5.87395         0.350426     -0.055124      0.195884
H      7.64558     10.62451     15.10445         0.619289     -0.170539     -0.139190
H     13.33282     10.62451      5.87395        -0.950429     -0.414187      0.121856
H     13.33282     10.35389     15.10445        -0.481400     -0.085568     -0.051607
H      5.87395      7.64558     10.35389         0.099438      1.183526     -0.105553
H     15.10445      7.64558     10.62451        -0.170536      0.397543     -0.079244
H      5.87395     13.33282     10.62451         0.143121     -0.394260     -0.068952
H     15.10445     13.33282     10.35389        -0.083446     -0.962909     -0.267573
H      5.87395     10.35389      7.64558         0.122752      0.013985      0.453939
H     15.10445     10.62451      7.64558         0.147980     -0.217159      0.747526
H      5.87395     10.62451     13.33282         0.272935     -0.035187     -0.407235
H     15.10445     10.35389     13.33282        -0.147681      0.027450     -0.629593
H     10.35389      7.64558      5.87395         0.141091      0.833189      0.110529
H     10.62451      7.64558     15.10445         0.020475      0.632976     -0.134042
H     10.62451     13.33282      5.87395         0.172333     -0.597710      0.179151
H     10.35389     13.33282     15.10445        -0.234446     -0.890721     -0.112420
H      7.64558      5.87395     10.35389         0.528780      0.025843     -0.161759
H      7.64558     15.10445     10.62451         0.917039     -0.184739      0.325375
H     13.33282      5.87395     10.62451        -0.428614      0.190343     -0.064940
H     13.33282     15.10445     10.35389        -0.996788     -0.075291      0.254361
H     12.45634     12.45634     19.01126         0.269497      0.258132     -0.222386
H     19.01126     19.01126     19.01126        -0.248327     -0.235402     -0.261690
H     19.01126     12.45634     12.45634        -0.244039      0.270872      0.236654
H     12.45634     19.01126     12.45634         0.207838     -0.284948      0.254958
C     10.35284      5.61067      6.59456        -0.112350     -0.422328     -0.525438
C     10.62556     15.36773      6.59456         0.012720      0.338872     -1.045790
C     10.62556      5.61067     14.38384        -0.013698     -0.257945      0.726482
C     10.35284     15.36773     14.38384         0.210522      0.739715      0.077273
C      6.59456     10.35284      5.61067        -0.481918     -0.045547     -0.214080
C      6.59456     10.62556     15.36773        -0.799857      0.145017      0.367895
C     14.38384     10.62556      5.61067         0.858743      0.282673     -0.343646
C     14.38384     10.35284     15.36773         0.751720     -0.126208      0.430835
C      5.61067      6.59456     10.35284        -0.415496     -0.860536      0.221879
C     15.36773      6.59456     10.62556         0.207965     -0.480714      0.041544
C      5.61067     14.38384     10.62556        -0.262239      0.380869     -0.015363
C     15.36773     14.38384     10.35284         0.355855      0.225368      0.250185
C      5.61067     10.35284      6.59456        -0.315697      0.000134     -0.874190
C     15.36773     10.62556      6.59456         0.540581     -0.132496     -1.230720
C      5.61067     10.62556     14.38384        -0.489792      0.007272      1.000152
C     15.36773     10.35284     14.38384         0.544659     -0.182789      1.271488
C     10.35284      6.59456      5.61067        -0.030014     -0.940579     -0.679526
C     10.62556      6.59456     15.36773         0.050219     -0.773783      0.339529
C     10.62556     14.38384      5.61067         0.004490      1.337916     -0.730224
C     10.35284     14.38384     15.36773         0.074722      0.604215      0.645422
C      6.59456      5.61067     10.35284        -0.242122     -0.905904      0.127678
C      6.59456     15.36773     10.62556        -1.753195      0.494203      0.029320
C     14.38384      5.61067     10.62556         0.567366     -0.223723     -0.004987
C     14.38384     15.36773     10.35284         0.314152      0.503789     -0.221554
C     10.40319      3.19606      7.29314         0.018818      0.945058     -0.244024
C     10.35913      4.25547      6.23373        -0.047499     -0.326010      0.663297
C      0.08601      7.29314      7.29314        -0.010157     -0.226273     -0.458726
C      0.13007      6.23373      6.23373        -0.006687      0.130172      0.193758
C      0.08601      3.19606      3.19606        -0.020208      0.684924      0.163981
C      0.13007      4.25547      4.25547        -0.096301     -0.193255     -0.170081
C     10.40319      7.29314      3.19606        -0.000561     -0.671270      0.505123
C     10.35913      6.23373      4.25547         0.002890      0.543994     -0.330754
C      7.29314     10.40319      3.19606        -0.386757      0.019815      0.842631
C      6.23373     10.35913      4.25547         0.225546      0.008244     -0.156734
C      7.29314      0.08601      7.29314        -0.303862     -0.048549     -0.250188
C      6.23373      0.13007      6.23373         0.259313     -0.067036      0.272787
C      3.19606      0.08601      3.19606         0.378935     -0.054834      1.318284
C      4.25547      0.13007      4.25547        -0.142393     -0.017423     -0.438609
C      3.19606     10.40319      7.29314         0.723993      0.016346     -0.266059
C      4.25547     10.35913      6.23373        -0.132815      0.035891      0.119486
C      3.19606      7.29314     10.40319         0.567193     -1.265161      0.035755
C      4.25547      6.23373     10.35913        -0.741524      0.772887      0.033727
C      7.29314      7.29314      0.08601        -0.645775     -0.172883     -0.025005
C      6.23373      6.23373      0.13007         0.170688      0.269288     -0.015076
C      3.19606      3.19606      0.08601         0.247051      0.254498     -0.020618
C      4.25547      4.25547      0.13007        -0.052691     -0.034886      0.017229
C      7.29314      3.19606     10.40319        -0.368744      0.738728      0.024346
C      6.23373      4.25547     10.35913         0.805833     -0.186026      0.027962
O     10.43466      3.58206      8.50569        -0.053086      0.023971      0.304113
O     10.54374     17.39634      8.50569        -0.019692     -0.189041      0.605259
O     10.54374      3.58206     12.47271         0.061330      0.053051     -0.305426
O     10.43466     17.39634     12.47271        -0.025611     -0.123136     -0.567211
O      8.50569     10.43466      3.58206         0.406032     -0.012762     -0.002594
O      8.50569     10.54374     17.39634         0.466660      0.056384     -0.143861
O     12.47271     10.54374      3.58206        -0.249215      0.060507     -0.097574
O     12.47271     10.43466     17.39634        -0.849519      0.023375     -0.214658
O      3.58206      8.50569     10.43466         0.033931      0.904374      0.041628
O     17.39634      8.50569     10.54374        -0.037614      0.345707      0.079271
O      3.58206     12.47271     10.54374         0.066668     -0.423288      0.060611
O     17.39634     12.47271     10.43466        -0.163433     -0.741848      0.013662
O      3.58206     10.43466      8.50569        -0.055388     -0.062363      0.230304
O     17.39634     10.54374      8.50569        -0.133817      0.042439      0.447991
O      3.58206     10.54374     12.47271        -0.041295     -0.057872     -0.870612
O     17.39634     10.43466     12.47271        -0.190120      0.037682     -0.747596
O     10.43466      8.50569      3.58206         0.035156      0.685654      0.195172
O     10.54374      8.50569     17.39634         0.053552      0.413234     -0.075746
O     10.54374     12.47271      3.58206        -0.028279     -0.738239      0.243239
O     10.43466     12.47271     17.39634         0.054940     -0.855382     -0.278571
O      8.50569      3.58206     10.43466         0.501010      0.089014     -0.040720
O      8.50569     17.39634     10.54374         0.651542     -0.243759     -0.057955
O     12.47271      3.58206     10.54374        -0.498113      0.161455      0.041762
O     12.47271     17.39634     10.43466        -0.502124     -0.034157     -0.039205
O     11.90042     11.90042     19.56718        -0.305875     -0.311277      0.262825
O     19.56718     19.56718     19.56718         0.289933      0.274069      0.320830
O     19.56718     11.90042     11.90042         0.283079     -0.328125     -0.238930
O     11.90042     19.56718     11.90042        -0.222291      0.294793     -0.241451
O      9.45224      1.03696      9.45224        -0.072450      0.055864     -0.064334
O      1.03696      9.45224      9.45224         0.066371     -0.140268     -0.051706
O      1.03696      1.03696      1.03696         0.047294      0.031084      0.188160
O      9.45224      9.45224      1.03696        -0.036753     -0.085539      0.128133
Zr     10.48920      2.52580     10.48920        -0.003711     -0.076923     -0.029853
Zr     10.48920     18.45260     10.48920         0.042663      0.290899     -0.067609
Zr     10.48920     10.48920      2.52580        -0.091366     -0.018832     -0.374691
Zr     10.48920     10.48920     18.45260        -0.141758     -0.180303      0.311273
Zr      2.52580     10.48920     10.48920        -0.326396      0.329778     -0.477734
Zr     18.45260     10.48920     10.48920         0.223596      0.037695     -0.271172
Pd      9.05649     10.28335     13.38676        -0.007244     -0.006454     -0.023768
Pd     10.62895      9.72963     11.10768        -0.016944      0.018377     -0.037671
Pd     13.76261      8.54638     12.74110        -0.005388      0.000372     -0.034151
Pd     11.00488     11.10487     15.06594        -0.003161     -0.007734     -0.023197
Pd     12.84394     11.19110     13.06268         0.010169      0.008001     -0.013242
Pd     14.96448     10.89542     11.35944         0.001675      0.012778     -0.004205
Pd      6.68399      7.41381     12.32073        -0.016587      0.002779      0.011701
Pd      9.21788      7.26425     10.20688         0.004217     -0.002474     -0.029404
Pd      9.26372      7.64196     12.86079         0.000146     -0.015489     -0.020432
Pd     11.70729      7.27209     11.53532        -0.011682      0.023638     -0.047155
Pd     11.34309      7.98393      8.90634         0.017285     -0.008766     -0.025848
Pd      7.23935     11.82961     12.00804         0.008648      0.002700     -0.022405
Pd      8.88378     14.65360      9.33461         0.005018      0.008671     -0.000925
Pd      8.42458     12.69216     14.33811         0.001255     -0.013356     -0.009434
Pd     13.34753     13.99077      8.63942         0.067014      0.044421     -0.026248
Pd     10.85029     13.22149      8.45598         0.043165      0.051321      0.025480
Pd     14.05677     11.44013      8.94378         0.021666      0.034653     -0.006821
Pd      8.62538     14.09439     12.08993         0.001845      0.010983      0.004787
Pd     12.24100     13.76316     14.00727         0.002264     -0.004499      0.010715
Pd     11.14048     14.40173     11.07324         0.012487      0.016448      0.029411
Pd     14.07741     13.51714     12.17383        -0.007888      0.019919     -0.000035
Pd     12.31492     12.12972     10.69415         0.001090      0.013782     -0.010574
Pd     12.54643     12.15152      6.75535         0.055259      0.074731     -0.005523
Pd     13.57457      8.91788      7.90354         0.014664      0.011343      0.007336
Pd      6.86684      8.45263      8.89921        -0.004769      0.008314     -0.020697
Pd      5.52347      9.87944     11.32735         0.007322      0.022337     -0.019837
Pd      9.04876      9.83647      8.24593         0.032943     -0.041001      0.035383
Pd      8.88991      7.30291      7.53667        -0.027228     -0.035190     -0.017614
Pd      9.48301     12.03626     10.44061         0.013590      0.032255     -0.013873
Pd     11.45774     10.64573      8.69336         0.012261      0.020234     -0.048321
Pd     11.13253      9.34397      6.46167         0.052283     -0.046836     -0.013934
Pd      9.74777     11.65582      6.31350         0.071369     -0.056743      0.044397
Ir     11.37107      9.09068     13.46721        -0.004361      0.006862     -0.035168
Ir     13.07681      9.40596     10.42192        -0.015184      0.036751     -0.014665
Ir     10.53943     12.36635     12.70976         0.013986      0.001299      0.007869
Ir      7.05575     10.97568      9.56383         0.030812     -0.004804     -0.008104
Ir      8.28448     12.44475      8.21072         0.050095      0.010073     -0.004182
Ir      8.09372      9.33641     11.14708        -0.028921     -0.010854     -0.011591
