152
# total energy = -1024.39742412 eVH     10.35389      5.87395      7.64558         0.478322      0.029540      0.733061
H     10.62451     15.10445      7.64558         0.051254     -0.198849      0.623845
H     10.62451      5.87395     13.33282         0.090214      0.160871     -0.562351
H     10.35389     15.10445     13.33282        -0.464347     -0.040515     -0.747971
H      7.64558     10.35389      5.87395         0.339984      0.021518      0.160970
H      7.64558     10.62451     15.10445         0.901861     -0.255405      0.028117
H     13.33282     10.62451      5.87395        -0.755638     -0.083432      0.151469
H     13.33282     10.35389     15.10445        -0.877149     -0.398567      0.193153
H      5.87395      7.64558     10.35389         0.169679      0.747892     -0.315887
H     15.10445      7.64558     10.62451        -0.138503      0.386712     -0.023225
H      5.87395     13.33282     10.62451         0.159437     -0.519555     -0.109760
H     15.10445     13.33282     10.35389        -0.092173     -1.191105      0.075907
H      5.87395     10.35389      7.64558         0.142704      0.159530      0.517299
H     15.10445     10.62451      7.64558         0.004438      0.096781      1.044751
H      5.87395     10.62451     13.33282         0.084284     -0.043328     -0.454425
H     15.10445     10.35389     13.33282        -0.160071     -0.169463     -0.471344
H     10.35389      7.64558      5.87395         0.087314      1.018683      0.234358
H     10.62451      7.64558     15.10445         0.001727      0.270390     -0.165804
H     10.62451     13.33282      5.87395        -0.104107     -0.392516      0.321007
H     10.35389     13.33282     15.10445        -0.437348     -0.591622     -0.006891
H      7.64558      5.87395     10.35389         0.510353      0.096982     -0.083483
H      7.64558     15.10445     10.62451         0.930917     -0.227942     -0.165011
H     13.33282      5.87395     10.62451        -0.593682      0.102520     -0.070613
H     13.33282     15.10445     10.35389        -0.593216     -0.058168      0.245140
H     12.45634     12.45634     19.01126         0.234707      0.279364     -0.236975
H     19.01126     19.01126     19.01126        -0.250061     -0.248951     -0.242104
H     19.01126     12.45634     12.45634        -0.266138      0.265204      0.220213
H     12.45634     19.01126     12.45634         0.237877     -0.266574      0.238728
C     10.35284      5.61067      6.59456        -0.205730     -0.690188      0.099619
C     10.62556     15.36773      6.59456        -0.047018      0.385820     -0.845373
C     10.62556      5.61067     14.38384        -0.005096     -0.054892      0.679870
C     10.35284     15.36773     14.38384         0.192127      0.691406      0.165037
C      6.59456     10.35284      5.61067        -0.339849     -0.018158     -0.296939
C      6.59456     10.62556     15.36773        -1.073327      0.264321      0.300106
C     14.38384     10.62556      5.61067         0.409203      0.361810     -0.682762
C     14.38384     10.35284     15.36773         1.021984      0.012273      0.259942
C      5.61067      6.59456     10.35284        -0.393090     -0.391425      0.372078
C     15.36773      6.59456     10.62556         0.189948     -0.498307      0.016347
C      5.61067     14.38384     10.62556        -0.201333      0.579462      0.005774
C     15.36773     14.38384     10.35284         0.342658      0.042551     -0.129935
C      5.61067     10.35284      6.59456        -0.321540     -0.080592     -1.021068
C     15.36773     10.62556      6.59456         0.880303     -0.338628     -0.981673
C      5.61067     10.62556     14.38384        -0.426346      0.029833      0.307022
C     15.36773     10.35284     14.38384         0.648548     -0.095473      1.081960
C     10.35284      6.59456      5.61067        -0.228097     -0.576553     -0.933497
C     10.62556      6.59456     15.36773         0.057403     -0.268426      0.044456
C     10.62556     14.38384      5.61067         0.075494      1.198973     -0.423277
C     10.35284     14.38384     15.36773         0.268990      0.156060      0.695931
C      6.59456      5.61067     10.35284        -0.202040     -0.742538      0.128400
C      6.59456     15.36773     10.62556        -1.218513      0.251302      0.157078
C     14.38384      5.61067     10.62556         1.035953     -0.295428      0.035937
C     14.38384     15.36773     10.35284        -0.486813      0.812527     -0.401539
C     10.40319      3.19606      7.29314        -0.030703      0.863507     -0.409022
C     10.35913      4.25547      6.23373         0.054028     -0.500481      0.548572
C      0.08601      7.29314      7.29314        -0.022483     -0.426230     -0.349359
C      0.13007      6.23373      6.23373        -0.023001      0.015975      0.102704
C      0.08601      3.19606      3.19606         0.008177      1.267000      0.190840
C      0.13007      4.25547      4.25547        -0.045783     -0.215377     -0.202898
C     10.40319      7.29314      3.19606        -0.014394     -1.054210      0.366190
C     10.35913      6.23373      4.25547         0.033525      0.464298     -0.672536
C      7.29314     10.40319      3.19606        -0.313410      0.033812      0.719512
C      6.23373     10.35913      4.25547         0.156698      0.074282     -0.104837
C      7.29314      0.08601      7.29314        -0.641513     -0.023340     -0.272722
C      6.23373      0.13007      6.23373         0.378295     -0.080319      0.515190
C      3.19606      0.08601      3.19606         1.002681     -0.006539      0.249377
C      4.25547      0.13007      4.25547        -0.147357     -0.040620     -0.516517
C      3.19606     10.40319      7.29314         0.375902     -0.013680     -0.968428
C      4.25547     10.35913      6.23373        -0.274502      0.093498      0.248537
C      3.19606      7.29314     10.40319         0.510080     -1.313463     -0.040112
C      4.25547      6.23373     10.35913        -0.529238      0.755654      0.109954
C      7.29314      7.29314      0.08601        -0.395265     -0.223160     -0.001346
C      6.23373      6.23373      0.13007         0.157940      0.144097     -0.003741
C      3.19606      3.19606      0.08601         0.254706      0.256286     -0.017133
C      4.25547      4.25547      0.13007        -0.119533     -0.055961      0.008962
C      7.29314      3.19606     10.40319        -0.388902      0.651731      0.008230
C      6.23373      4.25547     10.35913         1.105111     -0.080643      0.054852
O     10.43466      3.58206      8.50569        -0.025812      0.048260      0.447340
O     10.54374     17.39634      8.50569        -0.006616     -0.107230      0.456991
O     10.54374      3.58206     12.47271         0.040189     -0.106033     -0.132484
O     10.43466     17.39634     12.47271        -0.058694     -0.044454     -0.469643
O      8.50569     10.43466      3.58206         0.293976     -0.032324     -0.031784
O      8.50569     10.54374     17.39634         0.714884      0.024961     -0.195513
O     12.47271     10.54374      3.58206        -0.789357     -0.039470      0.151512
O     12.47271     10.43466     17.39634        -0.290126     -0.027318      0.031591
O      3.58206      8.50569     10.43466         0.155274      1.081179     -0.037778
O     17.39634      8.50569     10.54374        -0.096075      0.427757      0.058075
O      3.58206     12.47271     10.54374         0.068090     -0.400776      0.037140
O     17.39634     12.47271     10.43466        -0.159816     -0.685034     -0.007635
O      3.58206     10.43466      8.50569         0.061642     -0.068178      0.801149
O     17.39634     10.54374      8.50569        -0.062762      0.047279      0.335111
O      3.58206     10.54374     12.47271        -0.013859      0.038417     -0.237916
O     17.39634     10.43466     12.47271        -0.250694      0.003936     -0.709663
O     10.43466      8.50569      3.58206         0.118066      0.832591      0.193619
O     10.54374      8.50569     17.39634         0.032719      0.624406     -0.149355
O     10.54374     12.47271      3.58206         0.004901     -1.012418      0.181242
O     10.43466     12.47271     17.39634        -0.036649     -0.915180     -0.205793
O      8.50569      3.58206     10.43466         0.556687      0.120682     -0.016304
O      8.50569     17.39634     10.54374         0.516945     -0.198804     -0.010148
O     12.47271      3.58206     10.54374        -0.473446      0.158772      0.057424
O     12.47271     17.39634     10.43466        -0.414873      0.022883     -0.004818
O     11.90042     11.90042     19.56718        -0.265370     -0.329536      0.254181
O     19.56718     19.56718     19.56718         0.280516      0.292214      0.282319
O     19.56718     11.90042     11.90042         0.300141     -0.301527     -0.203631
O     11.90042     19.56718     11.90042        -0.267948      0.285418     -0.247984
O      9.45224      1.03696      9.45224        -0.079089      0.044729     -0.061780
O      1.03696      9.45224      9.45224         0.039847     -0.152789     -0.121236
O      1.03696      1.03696      1.03696         0.021736      0.118462      0.199088
O      9.45224      9.45224      1.03696        -0.067435     -0.086691      0.118996
Zr     10.48920      2.52580     10.48920        -0.047082     -0.116547     -0.166523
Zr     10.48920     18.45260     10.48920         0.013111      0.214192     -0.023152
Zr     10.48920     10.48920      2.52580        -0.160294     -0.184320     -0.518040
Zr     10.48920     10.48920     18.45260        -0.016116      0.002112      0.448818
Zr      2.52580     10.48920     10.48920        -0.355992      0.291183      0.196555
Zr     18.45260     10.48920     10.48920         0.202107      0.051192     -0.203109
Pd      8.35677      9.72645     13.23352        -0.015252     -0.004765     -0.031149
Pd     10.50667      9.46158     10.19126         0.030927      0.014479     -0.007373
Pd     13.09117      8.75279     12.46551        -0.014892      0.050395      0.008945
Pd     10.31591     10.76261     15.04512         0.002555     -0.030220      0.087018
Pd     12.84541     11.35238     13.53116         0.062343     -0.058296      0.074662
Pd     14.85621     10.66065     11.35854         0.008026     -0.078497      0.007352
Pd      6.85952      7.58584     12.29350         0.043998      0.015705     -0.006324
Pd      9.22260      7.20351      9.47530        -0.008825     -0.004828     -0.027557
Pd      9.55280      7.55415     12.20170         0.036391     -0.019745     -0.004010
Pd     11.75559      7.10956     10.81863        -0.031828     -0.036900      0.024926
Pd     11.63520      7.83011      8.26962        -0.031904     -0.001055     -0.017737
Pd      7.15489     11.69129     11.54625         0.009633     -0.025237     -0.057585
Pd      9.29518     14.32089      9.28217        -0.006500      0.005645     -0.015000
Pd      8.15751     12.32481     14.04789        -0.027324     -0.021657     -0.018552
Pd     14.24232     14.21053      8.34026        -0.002603     -0.032816      0.015697
Pd     11.75476     13.31374      8.79424        -0.060475      0.033747      0.102997
Pd     14.12862     11.62818      8.99279         0.015115      0.012444     -0.044254
Pd      8.71567     13.98039     12.02326         0.041248     -0.034866      0.019155
Pd     12.22237     13.97219     13.94601        -0.035515      0.047356      0.054466
Pd     11.41283     14.12715     11.30967        -0.028182     -0.021936     -0.038466
Pd     14.01231     13.31125     12.09516         0.029955      0.019326     -0.035762
Pd     12.27578     11.52545     10.87652        -0.075263      0.032161      0.039688
Pd     13.00156     12.63628      6.59367         0.047473     -0.057479     -0.060082
Pd     13.96512      8.83734      7.57789         0.021009      0.008120     -0.028326
Pd      6.98657      8.45669      8.39301        -0.062203      0.035895     -0.009026
Pd      5.54854     10.04325     10.03328         0.054768      0.006682      0.051088
Pd      9.41120      9.46512      7.48478        -0.018976     -0.017682     -0.052815
Pd      8.48363      6.97898      6.87333         0.026423     -0.011085      0.001267
Pd      9.64996     11.94206     10.53664         0.103533      0.049202      0.187321
Pd     11.82092     10.62102      8.04818         0.012946     -0.045409      0.033342
Pd     11.78770      8.93252      5.85284         0.000417     -0.009979      0.034501
Pd     10.62401     11.33913      5.74703        -0.041372      0.012412     -0.012094
Ir     10.82283      9.79876     12.69292        -0.014683     -0.056507     -0.011559
Ir     13.16553      9.26150      9.95302         0.009471     -0.002340      0.015988
Ir     10.50536     12.24959     12.90345        -0.097679      0.163097     -0.139581
Ir      7.76145     11.01654      9.04940        -0.220707     -0.045322     -0.000001
Ir      9.60871     12.06453      7.98463         0.055510      0.057593     -0.175369
Ir      8.02127      9.22514     10.70626        -0.057800     -0.141477      0.207410
