152
# total energy = -1004.19694765 eVH     10.35389      5.87395      7.64558        -0.231527      0.248964      0.603494
H     10.62451     15.10445      7.64558        -0.248067     -0.139879      0.691877
H     10.62451      5.87395     13.33282         0.469601      0.039941     -0.957933
H     10.35389     15.10445     13.33282         0.070328     -0.196128     -0.532778
H      7.64558     10.35389      5.87395         0.433840      0.065873      0.111732
H      7.64558     10.62451     15.10445         0.800040      0.605753     -0.029001
H     13.33282     10.62451      5.87395        -0.440219     -0.076285      0.309033
H     13.33282     10.35389     15.10445        -0.687629     -0.160893     -0.034939
H      5.87395      7.64558     10.35389         0.090866      1.788118      0.149443
H     15.10445      7.64558     10.62451        -0.099558      0.513001      0.118255
H      5.87395     13.33282     10.62451         0.207555     -0.751832      0.058232
H     15.10445     13.33282     10.35389         0.238029     -1.450825     -0.345487
H      5.87395     10.35389      7.64558         0.081092      0.076691      0.602151
H     15.10445     10.62451      7.64558        -0.212485      0.789172      1.322154
H      5.87395     10.62451     13.33282        -0.053735      0.458418     -1.314180
H     15.10445     10.35389     13.33282         0.136214     -0.134526     -0.762595
H     10.35389      7.64558      5.87395         0.236479      1.415226      0.183331
H     10.62451      7.64558     15.10445         0.554954      0.838471     -0.079064
H     10.62451     13.33282      5.87395        -0.566314     -0.809836      0.180109
H     10.35389     13.33282     15.10445        -0.121232     -0.518949     -0.286798
H      7.64558      5.87395     10.35389         1.114080     -0.302435     -0.158825
H      7.64558     15.10445     10.62451         0.708373     -0.208278     -0.027338
H     13.33282      5.87395     10.62451        -0.619925      0.116672      0.603826
H     13.33282     15.10445     10.35389        -0.369552     -0.039513     -0.124931
H     12.45634     12.45634     19.01126         0.272334      0.244158     -0.234139
H     19.01126     19.01126     19.01126        -0.267417     -0.274454     -0.212176
H     19.01126     12.45634     12.45634        -0.272069      0.254624      0.233340
H     12.45634     19.01126     12.45634         0.256121     -0.281847      0.227856
C     10.35284      5.61067      6.59456        -0.134747     -0.843665     -0.611439
C     10.62556     15.36773      6.59456         0.087650      0.361383     -0.269069
C     10.62556      5.61067     14.38384        -0.084743     -0.611019      0.639617
C     10.35284     15.36773     14.38384        -0.017139      0.239254      0.542916
C      6.59456     10.35284      5.61067        -0.704116      0.091350     -0.501298
C      6.59456     10.62556     15.36773        -1.001666      0.212239      0.740390
C     14.38384     10.62556      5.61067         0.905628      0.020826     -0.961281
C     14.38384     10.35284     15.36773         0.964201     -0.083453      0.496501
C      5.61067      6.59456     10.35284        -0.831251     -0.952062     -0.492254
C     15.36773      6.59456     10.62556         0.722601     -0.005183     -0.214833
C      5.61067     14.38384     10.62556        -0.202332      0.896286     -0.023381
C     15.36773     14.38384     10.35284         0.305568      1.479804     -0.061925
C      5.61067     10.35284      6.59456        -0.300440     -0.003395     -0.756774
C     15.36773     10.62556      6.59456         0.390291     -0.379875     -0.873430
C      5.61067     10.62556     14.38384        -0.363677     -0.012743      1.068929
C     15.36773     10.35284     14.38384         0.307724     -0.034683      0.896545
C     10.35284      6.59456      5.61067         0.001311     -1.044050     -0.320181
C     10.62556      6.59456     15.36773         0.031313     -0.732843      0.573755
C     10.62556     14.38384      5.61067         0.105817      0.946295     -0.428104
C     10.35284     14.38384     15.36773        -0.026902      0.744116      0.373546
C      6.59456      5.61067     10.35284        -0.722254     -1.189391      0.154847
C      6.59456     15.36773     10.62556        -0.775763      0.129885      0.086352
C     14.38384      5.61067     10.62556        -0.050376     -0.487822     -0.408773
C     14.38384     15.36773     10.35284         0.080085      0.636089     -0.077261
C     10.40319      3.19606      7.29314         0.006705      0.624044     -0.836828
C     10.35913      4.25547      6.23373         0.005072     -0.513932      0.121970
C      0.08601      7.29314      7.29314        -0.029113     -1.050344     -0.261212
C      0.13007      6.23373      6.23373        -0.050832      0.394425      0.443499
C      0.08601      3.19606      3.19606         0.038241      1.147050      0.217026
C      0.13007      4.25547      4.25547         0.001479     -0.426889     -0.423171
C     10.40319      7.29314      3.19606        -0.013679     -0.634055      0.214109
C     10.35913      6.23373      4.25547        -0.032105      0.125561     -0.715853
C      7.29314     10.40319      3.19606        -0.436236      0.016605      0.240223
C      6.23373     10.35913      4.25547         0.203289      0.059136     -0.096554
C      7.29314      0.08601      7.29314        -1.242885     -0.079519     -0.383324
C      6.23373      0.13007      6.23373         0.666470     -0.197601      0.372890
C      3.19606      0.08601      3.19606         1.238140     -0.014340      0.276387
C      4.25547      0.13007      4.25547        -0.591082     -0.146967     -0.227660
C      3.19606     10.40319      7.29314         0.552017      0.031580     -0.258960
C      4.25547     10.35913      6.23373        -0.213155      0.067692      0.183151
C      3.19606      7.29314     10.40319         0.286271     -0.551909      0.053125
C      4.25547      6.23373     10.35913        -0.974358     -0.000971      0.161303
C      7.29314      7.29314      0.08601        -0.471875     -0.431473     -0.020918
C      6.23373      6.23373      0.13007         0.441141      0.304611      0.065423
C      3.19606      3.19606      0.08601         0.636958      0.455346     -0.022162
C      4.25547      4.25547      0.13007        -0.147572     -0.777331     -0.114335
C      7.29314      3.19606     10.40319        -0.377574      0.450466      0.055146
C      6.23373      4.25547     10.35913         0.601953     -0.693698      0.199253
O     10.43466      3.58206      8.50569         0.058549      0.221520      0.719435
O     10.54374     17.39634      8.50569         0.053700     -0.025201      0.302647
O     10.54374      3.58206     12.47271         0.004817     -0.038901     -0.239788
O     10.43466     17.39634     12.47271        -0.033439     -0.094557     -0.378170
O      8.50569     10.43466      3.58206         0.579689     -0.048085      0.148589
O      8.50569     10.54374     17.39634         0.878389     -0.081741     -0.144947
O     12.47271     10.54374      3.58206        -0.898944      0.143388      0.128315
O     12.47271     10.43466     17.39634        -0.608285      0.040155     -0.181673
O      3.58206      8.50569     10.43466         0.179717      0.650312     -0.037750
O     17.39634      8.50569     10.54374        -0.139630      0.623719      0.020356
O      3.58206     12.47271     10.54374         0.106425     -0.554816      0.049013
O     17.39634     12.47271     10.43466        -0.178437     -0.560954     -0.057758
O      3.58206     10.43466      8.50569         0.088495     -0.042545      0.385231
O     17.39634     10.54374      8.50569         0.062313      0.104937      0.323901
O      3.58206     10.54374     12.47271        -0.034912      0.026404     -0.225513
O     17.39634     10.43466     12.47271        -0.109719     -0.028651     -0.410099
O     10.43466      8.50569      3.58206        -0.045359      0.661373      0.181443
O     10.54374      8.50569     17.39634        -0.090023      0.810617     -0.151148
O     10.54374     12.47271      3.58206         0.121418     -0.929556      0.169059
O     10.43466     12.47271     17.39634         0.014897     -0.469339     -0.052265
O      8.50569      3.58206     10.43466         0.563520      0.149717     -0.051120
O      8.50569     17.39634     10.54374         0.591912     -0.164350      0.016447
O     12.47271      3.58206     10.54374        -0.738857      0.123216      0.017479
O     12.47271     17.39634     10.43466        -0.502331     -0.127338     -0.031558
O     11.90042     11.90042     19.56718        -0.323051     -0.266882      0.244760
O     19.56718     19.56718     19.56718         0.296555      0.324761      0.204920
O     19.56718     11.90042     11.90042         0.343967     -0.284034     -0.249792
O     11.90042     19.56718     11.90042        -0.281290      0.350375     -0.221166
O      9.45224      1.03696      9.45224        -0.038743      0.105058     -0.124228
O      1.03696      9.45224      9.45224         0.069082     -0.029448     -0.109844
O      1.03696      1.03696      1.03696         0.063879      0.090916      0.104095
O      9.45224      9.45224      1.03696        -0.035483     -0.026236      0.095634
Zr     10.48920      2.52580     10.48920        -0.091969     -0.241978      0.183511
Zr     10.48920     18.45260     10.48920         0.018716      0.056600      0.081169
Zr     10.48920     10.48920      2.52580        -0.316909     -0.222162     -0.406051
Zr     10.48920     10.48920     18.45260         0.188496      0.009272      0.346477
Zr      2.52580     10.48920     10.48920        -0.135992     -0.043660     -0.066991
Zr     18.45260     10.48920     10.48920         0.103807     -0.047744      0.136154
Pd     12.66524      8.22288      9.68929         0.044419      0.005309      0.054845
Pd      6.75098      9.63420     10.49060        -0.038878      0.018362      0.034506
Pd      6.94716     11.80126     11.94001        -0.029254     -0.017221     -0.002813
Pd     12.24203     13.47125      7.29073         0.007925      0.007620      0.005043
Pd     12.10486      7.89752      7.03903        -0.021808      0.003405      0.058334
Pd      8.53714      7.36489      6.95734        -0.058559      0.019520      0.025803
Pd     11.55154     11.45662      5.66459        -0.046006     -0.020451      0.020983
Pd     14.49306      8.82995      7.80391        -0.008435      0.006581      0.001592
Pd      9.90294     11.76338      7.84263        -0.000557      0.031939      0.028565
Pd      7.07976      7.18556     11.97536        -0.001846     -0.003999      0.019247
Pd      6.44699      7.75024      8.49285         0.018380     -0.064182      0.013988
Pd      7.33884      9.26638     13.48051        -0.007212     -0.001827      0.002738
Pd     11.34049      6.03773      9.22703         0.036136     -0.021700      0.002192
Pd      9.90056      9.58810      6.27547        -0.006011     -0.014181      0.031325
Pd      9.13252     13.89837      9.26036        -0.003153      0.070733      0.002727
Pd     10.87916      7.17679     11.54287         0.043082      0.000285     -0.067621
Pd     10.33924      9.04813      8.90712        -0.138821     -0.012862      0.012561
Pd      9.26260     11.47982     10.44209         0.022017      0.054222     -0.022344
Pd      8.86384      7.11317      9.64818         0.016616      0.018724     -0.007289
Pd      9.04771      7.26468     13.68272         0.012506      0.010082      0.010606
Pd      9.09347      9.08818     11.47065         0.052543      0.011361     -0.021324
Pd     12.34920     10.58021      8.09391        -0.000841      0.002762     -0.012524
Pd      7.00344     12.09443      9.22206        -0.011925     -0.026027      0.001678
Pd      8.04153      9.87030      8.20974         0.068687     -0.048476     -0.035077
Pd     13.97916      6.28875      8.46565         0.018408      0.015931      0.001874
Pd     13.29712      8.23637     12.21216         0.012032      0.042976      0.026743
Pd      9.18549     11.30513     13.22686         0.052320      0.012371     -0.031613
Pd     14.09343     12.41908      8.80797         0.003105     -0.002812     -0.003544
Pd     13.16707     10.81955     12.92956        -0.017088      0.043284      0.009321
Pd     14.24581     10.24242     10.38682         0.028012      0.033088     -0.017274
Pd     11.59912     10.36381     10.86515         0.019183      0.047606      0.010855
Pd     11.54750     12.92089      9.75983        -0.014334     -0.032620      0.033878
Pd     13.69905     12.86383     11.47593        -0.014837     -0.010453      0.044638
Pd     11.25460     12.64355     12.35095         0.009325     -0.003245     -0.014412
Pd     11.37191     11.46394     14.80236        -0.049317      0.033936     -0.007870
Pd     11.06574      9.22409     13.29860         0.014044      0.025070     -0.050265
Pd      9.47005      9.60123     15.33978        -0.010239     -0.025161     -0.022768
Pd      8.91895     13.73678     11.93997        -0.048822     -0.018346      0.033356
