152
# total energy = -1004.31606917 eVH     10.35389      5.87395      7.64558        -0.172889      0.208881      0.648331
H     10.62451     15.10445      7.64558        -0.270210     -0.134877      0.660026
H     10.62451      5.87395     13.33282         0.465325      0.037089     -0.972861
H     10.35389     15.10445     13.33282         0.065604     -0.188269     -0.540412
H      7.64558     10.35389      5.87395         0.401185      0.066069      0.117455
H      7.64558     10.62451     15.10445         0.780330      0.570693     -0.020677
H     13.33282     10.62451      5.87395        -0.451781     -0.005461      0.253745
H     13.33282     10.35389     15.10445        -0.762163     -0.206513      0.021429
H      5.87395      7.64558     10.35389         0.099627      1.895770      0.193488
H     15.10445      7.64558     10.62451        -0.091703      0.506461      0.211636
H      5.87395     13.33282     10.62451         0.211513     -0.662851     -0.012823
H     15.10445     13.33282     10.35389         0.239190     -1.458712     -0.376914
H      5.87395     10.35389      7.64558         0.094923      0.056844      0.557440
H     15.10445     10.62451      7.64558        -0.160517      0.982247      1.398639
H      5.87395     10.62451     13.33282        -0.070413      0.476436     -1.313316
H     15.10445     10.35389     13.33282         0.129618     -0.191977     -0.772646
H     10.35389      7.64558      5.87395         0.298376      1.342194      0.163645
H     10.62451      7.64558     15.10445         0.559935      0.811348     -0.083987
H     10.62451     13.33282      5.87395        -0.607929     -0.824808      0.214742
H     10.35389     13.33282     15.10445        -0.179538     -0.531510     -0.317805
H      7.64558      5.87395     10.35389         1.153807     -0.241582     -0.095561
H      7.64558     15.10445     10.62451         0.785400     -0.205776     -0.021891
H     13.33282      5.87395     10.62451        -0.604354      0.115552      0.638814
H     13.33282     15.10445     10.35389        -0.431330     -0.022272     -0.163618
H     12.45634     12.45634     19.01126         0.273688      0.244745     -0.233445
H     19.01126     19.01126     19.01126        -0.265880     -0.271914     -0.216177
H     19.01126     12.45634     12.45634        -0.275733      0.252549      0.232075
H     12.45634     19.01126     12.45634         0.252795     -0.281268      0.229536
C     10.35284      5.61067      6.59456        -0.144772     -0.823546     -0.560017
C     10.62556     15.36773      6.59456         0.100341      0.360528     -0.214861
C     10.62556      5.61067     14.38384        -0.075019     -0.579804      0.647260
C     10.35284     15.36773     14.38384        -0.006232      0.248895      0.533562
C      6.59456     10.35284      5.61067        -0.623694      0.080161     -0.430290
C      6.59456     10.62556     15.36773        -1.017740      0.234830      0.735439
C     14.38384     10.62556      5.61067         0.780853      0.038961     -0.927728
C     14.38384     10.35284     15.36773         0.931658     -0.112310      0.438969
C      5.61067      6.59456     10.35284        -0.885162     -1.055843     -0.418591
C     15.36773      6.59456     10.62556         0.667984      0.061681     -0.266108
C      5.61067     14.38384     10.62556        -0.234883      0.757930      0.016109
C     15.36773     14.38384     10.35284         0.298436      1.420361     -0.014476
C      5.61067     10.35284      6.59456        -0.278785      0.021187     -0.727685
C     15.36773     10.62556      6.59456         0.415836     -0.357960     -1.032884
C      5.61067     10.62556     14.38384        -0.357112      0.001905      1.121414
C     15.36773     10.35284     14.38384         0.394271     -0.051437      0.862287
C     10.35284      6.59456      5.61067        -0.052059     -1.016135     -0.370904
C     10.62556      6.59456     15.36773         0.059134     -0.687483      0.543823
C     10.62556     14.38384      5.61067         0.140126      1.004524     -0.429659
C     10.35284     14.38384     15.36773        -0.020749      0.901993      0.461648
C      6.59456      5.61067     10.35284        -0.667061     -1.293287      0.108082
C      6.59456     15.36773     10.62556        -0.902576      0.172217      0.100448
C     14.38384      5.61067     10.62556        -0.087686     -0.519264     -0.348871
C     14.38384     15.36773     10.35284         0.150110      0.673978     -0.069506
C     10.40319      3.19606      7.29314         0.006540      0.727509     -0.728646
C     10.35913      4.25547      6.23373         0.014376     -0.536689      0.105768
C      0.08601      7.29314      7.29314        -0.019817     -1.012458     -0.261679
C      0.13007      6.23373      6.23373        -0.049498      0.411227      0.398404
C      0.08601      3.19606      3.19606         0.046724      1.208803      0.207990
C      0.13007      4.25547      4.25547        -0.008213     -0.405572     -0.456921
C     10.40319      7.29314      3.19606        -0.009275     -0.554265      0.218463
C     10.35913      6.23373      4.25547        -0.017794      0.124820     -0.692778
C      7.29314     10.40319      3.19606        -0.384945      0.023511      0.285918
C      6.23373     10.35913      4.25547         0.217899      0.074390     -0.104392
C      7.29314      0.08601      7.29314        -1.144610     -0.080495     -0.376088
C      6.23373      0.13007      6.23373         0.642401     -0.186414      0.364556
C      3.19606      0.08601      3.19606         1.155017     -0.018281      0.299537
C      4.25547      0.13007      4.25547        -0.572286     -0.156871     -0.216344
C      3.19606     10.40319      7.29314         0.553491      0.031875     -0.251774
C      4.25547     10.35913      6.23373        -0.223472      0.084058      0.209796
C      3.19606      7.29314     10.40319         0.310389     -0.577388      0.040378
C      4.25547      6.23373     10.35913        -1.053955      0.037586      0.178696
C      7.29314      7.29314      0.08601        -0.491366     -0.453570     -0.023350
C      6.23373      6.23373      0.13007         0.509784      0.302057      0.028888
C      3.19606      3.19606      0.08601         0.626521      0.436204     -0.023196
C      4.25547      4.25547      0.13007        -0.096990     -0.754765     -0.104263
C      7.29314      3.19606     10.40319        -0.416150      0.482399      0.049153
C      6.23373      4.25547     10.35913         0.592427     -0.750603      0.188492
O     10.43466      3.58206      8.50569         0.048007      0.172221      0.621400
O     10.54374     17.39634      8.50569         0.048658     -0.032791      0.308929
O     10.54374      3.58206     12.47271         0.002597     -0.055238     -0.210619
O     10.43466     17.39634     12.47271        -0.037512     -0.113293     -0.402187
O      8.50569     10.43466      3.58206         0.533110     -0.040421      0.130021
O      8.50569     10.54374     17.39634         0.854791     -0.081048     -0.166960
O     12.47271     10.54374      3.58206        -0.869142      0.135006      0.127419
O     12.47271     10.43466     17.39634        -0.621659      0.031870     -0.176322
O      3.58206      8.50569     10.43466         0.174969      0.679821     -0.025099
O     17.39634      8.50569     10.54374        -0.138343      0.638634      0.021758
O      3.58206     12.47271     10.54374         0.105568     -0.546913      0.056331
O     17.39634     12.47271     10.43466        -0.170476     -0.581419     -0.052321
O      3.58206     10.43466      8.50569         0.087285     -0.041089      0.391311
O     17.39634     10.54374      8.50569         0.053980      0.098626      0.339388
O      3.58206     10.54374     12.47271        -0.016314      0.034984     -0.245850
O     17.39634     10.43466     12.47271        -0.128921     -0.029624     -0.463695
O     10.43466      8.50569      3.58206        -0.033994      0.619587      0.177647
O     10.54374      8.50569     17.39634        -0.093892      0.815104     -0.180719
O     10.54374     12.47271      3.58206         0.108883     -0.958208      0.164539
O     10.43466     12.47271     17.39634         0.036793     -0.572727     -0.106257
O      8.50569      3.58206     10.43466         0.585211      0.150113     -0.052349
O      8.50569     17.39634     10.54374         0.591538     -0.165353      0.013913
O     12.47271      3.58206     10.54374        -0.734960      0.140332      0.008161
O     12.47271     17.39634     10.43466        -0.505336     -0.122859     -0.031361
O     11.90042     11.90042     19.56718        -0.327734     -0.267747      0.243422
O     19.56718     19.56718     19.56718         0.295851      0.323914      0.207836
O     19.56718     11.90042     11.90042         0.346321     -0.277317     -0.251144
O     11.90042     19.56718     11.90042        -0.280067      0.352826     -0.231335
O      9.45224      1.03696      9.45224        -0.028589      0.100049     -0.133458
O      1.03696      9.45224      9.45224         0.057417     -0.020448     -0.121283
O      1.03696      1.03696      1.03696         0.063260      0.101432      0.095911
O      9.45224      9.45224      1.03696        -0.040748     -0.028369      0.085290
Zr     10.48920      2.52580     10.48920        -0.085717     -0.245998      0.148955
Zr     10.48920     18.45260     10.48920         0.032131      0.057497      0.099590
Zr     10.48920     10.48920      2.52580        -0.322843     -0.288063     -0.382868
Zr     10.48920     10.48920     18.45260         0.185713     -0.024608      0.390475
Zr      2.52580     10.48920     10.48920        -0.142454     -0.041682     -0.070587
Zr     18.45260     10.48920     10.48920         0.128839     -0.043950      0.141317
Pd     12.74986      8.34423      9.77358         0.043873     -0.037330      0.031951
Pd      6.68026      9.59768     10.45367        -0.101786     -0.043472     -0.057379
Pd      6.91899     11.76000     11.88820         0.006268      0.010876     -0.030387
Pd     12.27520     13.50351      7.22802         0.002740     -0.023405      0.022876
Pd     12.08560      7.92883      7.14622         0.010349     -0.019604      0.018189
Pd      8.50528      7.32080      6.90120         0.028892      0.003735      0.016057
Pd     11.47041     11.47032      5.65857         0.008158      0.004090      0.035425
Pd     14.48586      8.89909      7.83213         0.019544     -0.016949     -0.016231
Pd      9.82418     11.79842      7.91220         0.021459     -0.001633      0.013427
Pd      7.08644      7.15946     11.97803        -0.031771     -0.003133     -0.003338
Pd      6.46439      7.57003      8.49708        -0.037188      0.001059      0.017622
Pd      7.32907      9.27138     13.44153        -0.014259     -0.062992     -0.012308
Pd     11.42362      6.11537      9.20684         0.028878      0.051345      0.036575
Pd      9.94392      9.56001      6.40289         0.007470     -0.008863     -0.003593
Pd      9.10788     13.98811      9.36597         0.032098     -0.043843     -0.019143
Pd     10.93382      7.23512     11.53483         0.004852      0.041069     -0.022773
Pd     10.35253      9.08915      9.08699        -0.036688     -0.017867     -0.025825
Pd      9.35548     11.51912     10.52849        -0.012705      0.010793     -0.001540
Pd      8.92782      7.03668      9.59667        -0.041897      0.059095     -0.049037
Pd      9.09374      7.30391     13.63067         0.014900      0.052002     -0.026809
Pd      9.02995      9.07776     11.40353        -0.010334      0.039637      0.068102
Pd     12.27799     10.60750      8.05241        -0.036847      0.015967     -0.034882
Pd      7.16179     12.02652      9.16858        -0.020605     -0.025771      0.013393
Pd      8.04415      9.71295      8.22487         0.058328      0.018779      0.034116
Pd     14.04428      6.38731      8.50336        -0.017365     -0.071354      0.011737
Pd     13.31714      8.44205     12.29899        -0.010890     -0.008224      0.027838
Pd      9.12871     11.35553     13.24198         0.033539      0.037360     -0.005167
Pd     14.02007     12.39420      8.82466         0.004277     -0.023482     -0.004192
Pd     13.17879     11.03517     13.08073        -0.015807     -0.035920     -0.000690
Pd     14.39600     10.34460     10.50384         0.019707     -0.045404      0.049980
Pd     11.78356     10.58396     10.82847        -0.022592      0.028844     -0.038081
Pd     11.54243     13.05778      9.71445         0.013997      0.000447      0.006464
Pd     13.66320     12.97058     11.48474        -0.028564     -0.011260      0.016228
Pd     11.19152     12.75120     12.35341         0.028381     -0.009137     -0.004030
Pd     11.25867     11.53018     14.84365        -0.004007      0.011960     -0.006595
Pd     11.01525      9.41898     13.13995         0.038074     -0.001956     -0.009740
Pd      9.45212      9.56015     15.27842         0.032958     -0.013609     -0.003314
Pd      8.79429     13.77172     12.02553        -0.016949     -0.012934     -0.007061
