152
# total energy = -1060.20094805 eVH     10.35389      5.87395      7.64558        -0.274861      0.108887      1.063739
H     10.62451     15.10445      7.64558         0.119883     -0.071577      0.885403
H     10.62451      5.87395     13.33282        -0.266036      0.074902     -0.765358
H     10.35389     15.10445     13.33282         0.099215     -0.298686     -0.811137
H      7.64558     10.35389      5.87395         0.897399     -0.205139      0.209427
H      7.64558     10.62451     15.10445         0.303845     -0.025019     -0.061371
H     13.33282     10.62451      5.87395        -0.876509      0.192644      0.214796
H     13.33282     10.35389     15.10445        -0.283983     -0.031069     -0.059297
H      5.87395      7.64558     10.35389         0.093716      0.422227     -0.011752
H     15.10445      7.64558     10.62451        -0.046420      0.440198     -0.014354
H      5.87395     13.33282     10.62451        -0.013048     -0.948149      0.080224
H     15.10445     13.33282     10.35389        -0.096574     -0.332531      0.004414
H      5.87395     10.35389      7.64558         0.319822      0.059682      0.368275
H     15.10445     10.62451      7.64558        -0.119863     -0.154134      0.641417
H      5.87395     10.62451     13.33282        -0.058847      0.447810     -0.608065
H     15.10445     10.35389     13.33282         0.223466     -0.614218     -0.883827
H     10.35389      7.64558      5.87395        -0.015270      0.489879      0.339218
H     10.62451      7.64558     15.10445         0.347674      0.799169     -0.000332
H     10.62451     13.33282      5.87395         0.144689     -0.562309      0.193414
H     10.35389     13.33282     15.10445         0.041263     -0.295191     -0.167120
H      7.64558      5.87395     10.35389         0.374783      0.115493      0.062936
H      7.64558     15.10445     10.62451         0.379935     -0.129194      0.182599
H     13.33282      5.87395     10.62451        -0.307889      0.136766     -0.012456
H     13.33282     15.10445     10.35389        -0.660304     -0.118669      0.148797
H     12.45634     12.45634     19.01126         0.261198      0.271618     -0.225125
H     19.01126     19.01126     19.01126        -0.248741     -0.268208     -0.243339
H     19.01126     12.45634     12.45634        -0.247787      0.272210      0.237393
H     12.45634     19.01126     12.45634         0.291022     -0.234119      0.235213
C     10.35284      5.61067      6.59456         0.391778     -0.414878     -1.342798
C     10.62556     15.36773      6.59456        -0.176919      0.618616     -0.653868
C     10.62556      5.61067     14.38384         0.364158     -0.280454      0.754761
C     10.35284     15.36773     14.38384        -0.199066      0.236296      1.004455
C      6.59456     10.35284      5.61067        -1.384318      0.031440     -0.218379
C      6.59456     10.62556     15.36773        -0.650408      0.065150      0.353277
C     14.38384     10.62556      5.61067         1.332566     -0.184605     -0.629603
C     14.38384     10.35284     15.36773         0.325497     -0.134204      0.357628
C      5.61067      6.59456     10.35284        -0.271029     -0.665987     -0.027025
C     15.36773      6.59456     10.62556         0.405633     -0.858388      0.015595
C      5.61067     14.38384     10.62556        -0.154683      1.160815     -0.202102
C     15.36773     14.38384     10.35284         0.498450      0.704506     -0.035490
C      5.61067     10.35284      6.59456        -0.366533     -0.107926     -0.775923
C     15.36773     10.62556      6.59456         0.395957      0.109505     -0.666821
C      5.61067     10.62556     14.38384        -0.396537     -0.157501      1.217669
C     15.36773     10.35284     14.38384         0.219664      0.226758      1.400019
C     10.35284      6.59456      5.61067        -0.070090     -0.730275     -0.529754
C     10.62556      6.59456     15.36773        -0.149156     -1.000869      0.372328
C     10.62556     14.38384      5.61067        -0.492757      0.367419     -0.735400
C     10.35284     14.38384     15.36773        -0.173614      0.752466      0.515860
C      6.59456      5.61067     10.35284        -0.562041     -0.332174      0.006286
C      6.59456     15.36773     10.62556        -0.349243      0.445014      0.066083
C     14.38384      5.61067     10.62556         0.433074     -0.306316      0.004661
C     14.38384     15.36773     10.35284         1.128598      0.480999     -0.090100
C     10.40319      3.19606      7.29314        -0.008469      0.799216     -0.325135
C     10.35913      4.25547      6.23373         0.017618     -0.362177      0.290035
C      0.08601      7.29314      7.29314        -0.024479     -0.392223     -0.498564
C      0.13007      6.23373      6.23373        -0.055882      0.871688      0.091741
C      0.08601      3.19606      3.19606        -0.009437      0.678293      0.263392
C      0.13007      4.25547      4.25547         0.048398     -0.264338     -0.548238
C     10.40319      7.29314      3.19606        -0.064468     -1.092189      0.616465
C     10.35913      6.23373      4.25547        -0.051787      0.325044     -0.183361
C      7.29314     10.40319      3.19606        -1.107045     -0.056461      0.210419
C      6.23373     10.35913      4.25547         0.383852      0.101866     -0.524999
C      7.29314      0.08601      7.29314        -0.500740      0.025318     -0.437855
C      6.23373      0.13007      6.23373         0.172481      0.115195      0.111232
C      3.19606      0.08601      3.19606         0.678871      0.017375      0.168627
C      4.25547      0.13007      4.25547        -0.175067     -0.057642     -0.352846
C      3.19606     10.40319      7.29314         0.391106     -0.026335     -0.947533
C      4.25547     10.35913      6.23373        -0.133547     -0.054662      0.118612
C      3.19606      7.29314     10.40319         0.629223     -0.392676      0.005001
C      4.25547      6.23373     10.35913        -0.115885      0.180060      0.009482
C      7.29314      7.29314      0.08601        -0.434045     -0.301488     -0.013632
C      6.23373      6.23373      0.13007         0.155884      0.145656     -0.069346
C      3.19606      3.19606      0.08601         0.306739      0.502762     -0.019972
C      4.25547      4.25547      0.13007        -0.408648     -0.245597     -0.028677
C      7.29314      3.19606     10.40319        -0.284540      0.602628     -0.008433
C      6.23373      4.25547     10.35913         0.014153     -0.104997      0.015147
O     10.43466      3.58206      8.50569        -0.025786      0.069812      0.281575
O     10.54374     17.39634      8.50569         0.065577     -0.116351      0.580729
O     10.54374      3.58206     12.47271         0.030618      0.105831     -0.409456
O     10.43466     17.39634     12.47271         0.096664     -0.061678     -0.425481
O      8.50569     10.43466      3.58206         0.744982     -0.071542      0.019282
O      8.50569     10.54374     17.39634         0.558952      0.060123     -0.108127
O     12.47271     10.54374      3.58206        -0.637629      0.114278      0.213184
O     12.47271     10.43466     17.39634        -0.303086      0.005434      0.033174
O      3.58206      8.50569     10.43466         0.032793      0.438803     -0.061808
O     17.39634      8.50569     10.54374        -0.054327      0.451556      0.057311
O      3.58206     12.47271     10.54374         0.105318     -0.598219      0.002437
O     17.39634     12.47271     10.43466        -0.187222     -0.746119     -0.050272
O      3.58206     10.43466      8.50569         0.212394     -0.054288      0.804769
O     17.39634     10.54374      8.50569        -0.062515      0.075226      0.474400
O      3.58206     10.54374     12.47271         0.001408     -0.004016     -0.266313
O     17.39634     10.43466     12.47271         0.038129     -0.010361     -0.234084
O     10.43466      8.50569      3.58206        -0.110195      0.511802     -0.102682
O     10.54374      8.50569     17.39634         0.055679      0.523615     -0.089318
O     10.54374     12.47271      3.58206         0.099413     -0.626960      0.127580
O     10.43466     12.47271     17.39634        -0.067448     -0.706812     -0.287163
O      8.50569      3.58206     10.43466         0.395437      0.021352     -0.048487
O      8.50569     17.39634     10.54374         0.644777     -0.152314      0.044375
O     12.47271      3.58206     10.54374        -0.525493      0.120116      0.025129
O     12.47271     17.39634     10.43466        -0.634055     -0.125399      0.041082
O     11.90042     11.90042     19.56718        -0.281246     -0.302193      0.218936
O     19.56718     19.56718     19.56718         0.310469      0.323296      0.294386
O     19.56718     11.90042     11.90042         0.281452     -0.325843     -0.238553
O     11.90042     19.56718     11.90042        -0.315228      0.227565     -0.202781
O      9.45224      1.03696      9.45224        -0.074285      0.089138     -0.084376
O      1.03696      9.45224      9.45224         0.100405     -0.107422     -0.065216
O      1.03696      1.03696      1.03696         0.081459      0.056920      0.091449
O      9.45224      9.45224      1.03696        -0.062324     -0.128656      0.132561
Zr     10.48920      2.52580     10.48920         0.048998     -0.097973      0.142166
Zr     10.48920     18.45260     10.48920        -0.185918      0.247382     -0.359472
Zr     10.48920     10.48920      2.52580         0.122651      0.370833     -0.331030
Zr     10.48920     10.48920     18.45260        -0.070669     -0.270388      0.263887
Zr      2.52580     10.48920     10.48920        -0.239156      0.127478      0.248601
Zr     18.45260     10.48920     10.48920         0.192267     -0.144505     -0.013937
Pd      9.35819     14.31005      9.29183         0.016373      0.062033      0.002452
Pd      8.59452     13.62890     13.06287         0.036497     -0.025700      0.044391
Pd     12.03653     14.40362      8.75195        -0.041641      0.009915      0.020960
Pd     12.74150     12.86747     10.69491        -0.031496      0.052122      0.012228
Pd     12.13047      7.19306     12.67698        -0.025757      0.014101     -0.025973
Pd     11.16039     14.92000     11.44365        -0.015649      0.018082     -0.027594
Pd     10.01711     12.58499     11.06939        -0.062161     -0.018973      0.013792
Pd     13.47476     12.17178      7.98599         0.120704      0.053638     -0.023290
Pd     11.50079     11.55410      6.12913        -0.049114      0.002797     -0.101417
Pd      7.93951      8.36303      7.51617        -0.026138     -0.032340     -0.025957
Pd      8.72390     11.75127      6.84788        -0.032754      0.024163      0.028808
Pd     10.30112      9.44151      8.16038        -0.027624      0.027124     -0.044423
Pd      8.49651     14.46264      6.78724        -0.038272     -0.024940     -0.065550
Pd     12.38375      9.03356      6.60459         0.010855      0.040125     -0.009363
Pd      9.72579      9.62357      5.56624         0.053345      0.002786      0.034093
Pd      6.82611      9.45539     12.14016        -0.022996     -0.032264     -0.009149
Pd     12.19388      6.75801      7.97033        -0.014412     -0.084019     -0.019689
Pd      5.92413     10.50241      9.68774        -0.038627     -0.006904      0.015538
Pd      7.52821      7.22550     13.39267         0.135015      0.073519     -0.016874
Ir     11.72522      9.77622     13.06679        -0.043413     -0.001783     -0.013661
Ir     13.55030      9.06994     11.47569        -0.101274     -0.009718      0.052691
Ir      9.43018      8.85164     14.00797        -0.125189     -0.138510      0.080085
Ir     10.49841     11.01984     14.90793         0.035863     -0.112188      0.066980
Ir      7.27392     12.01058     11.35896         0.013767      0.017435     -0.069313
Ir     14.64840     10.91585     10.15155        -0.049694      0.052177      0.060065
Ir     12.16448     10.57866      9.64420         0.114175     -0.230551      0.154630
Ir      8.76964     10.98547     12.98929        -0.018438      0.212906     -0.011721
Ir     10.10930      9.92447     11.15265         0.097140      0.065172     -0.014444
Ir     13.71125     11.41568     12.50845         0.020338      0.013895      0.032384
Ir     11.54552     12.34690     13.07944        -0.087650     -0.067398      0.051357
Ir      8.50995     11.09653      9.34638        -0.132825      0.198698     -0.072236
Ir     11.58350      8.02732     10.15871         0.062444      0.025515      0.020460
Ir      7.21610     13.02302      8.66184         0.037854      0.027516      0.020505
Ir      9.54118      6.95993      9.23695         0.036340     -0.044128     -0.008708
Ir      8.05277      8.76652     10.05106        -0.094682     -0.047911     -0.007689
Ir     10.71809     12.13157      8.50402        -0.073411      0.080080     -0.076523
Ir      9.50593      7.58840     11.75315         0.021694     -0.094020      0.098211
Ir     13.68244      8.78629      8.86267         0.052504      0.025031      0.008836
