152
# total energy = -1005.97496396 eVH     10.35389      5.87395      7.64558         0.258250      0.038020      0.641457
H     10.62451     15.10445      7.64558        -0.110078     -0.142363      0.530660
H     10.62451      5.87395     13.33282         0.487069      0.119889     -0.584374
H     10.35389     15.10445     13.33282         0.070526     -0.185110     -0.544655
H      7.64558     10.35389      5.87395         0.370467      0.042464      0.173076
H      7.64558     10.62451     15.10445         0.688962      0.470976     -0.043016
H     13.33282     10.62451      5.87395        -0.533413      0.418662      0.075095
H     13.33282     10.35389     15.10445        -0.797980     -0.095381      0.002883
H      5.87395      7.64558     10.35389         0.252073      0.802570     -0.272248
H     15.10445      7.64558     10.62451        -0.094396      0.486371      0.285645
H      5.87395     13.33282     10.62451         0.156703     -0.699006     -0.162421
H     15.10445     13.33282     10.35389        -0.002447     -1.049624     -0.332150
H      5.87395     10.35389      7.64558         0.251391      0.138549      0.596812
H     15.10445     10.62451      7.64558        -0.111588      0.408055      0.767549
H      5.87395     10.62451     13.33282         0.141987      0.337310     -0.698183
H     15.10445     10.35389     13.33282        -0.037107     -0.076721     -0.705197
H     10.35389      7.64558      5.87395         0.364173      1.042352     -0.010261
H     10.62451      7.64558     15.10445         0.537313      0.536340     -0.117816
H     10.62451     13.33282      5.87395        -0.395663     -0.834849      0.187624
H     10.35389     13.33282     15.10445        -0.042708     -0.433296     -0.217176
H      7.64558      5.87395     10.35389         0.857462      0.086688     -0.289009
H      7.64558     15.10445     10.62451         0.827145     -0.201554     -0.000757
H     13.33282      5.87395     10.62451        -0.794394      0.188384      0.593097
H     13.33282     15.10445     10.35389        -0.445299     -0.106339     -0.137748
H     12.45634     12.45634     19.01126         0.235570      0.271085     -0.239499
H     19.01126     19.01126     19.01126        -0.261995     -0.240781     -0.261472
H     19.01126     12.45634     12.45634        -0.266598      0.268313      0.219921
H     12.45634     19.01126     12.45634         0.232744     -0.256961      0.276139
C     10.35284      5.61067      6.59456        -0.430847     -0.680974      0.143657
C     10.62556     15.36773      6.59456         0.066576      0.361664     -0.310898
C     10.62556      5.61067     14.38384        -0.328873     -0.377874     -0.294122
C     10.35284     15.36773     14.38384        -0.006114      0.343477      0.534147
C      6.59456     10.35284      5.61067        -0.294498     -0.006280     -0.320881
C      6.59456     10.62556     15.36773        -0.249707     -0.215602      0.795733
C     14.38384     10.62556      5.61067        -0.236025     -0.395181     -0.527346
C     14.38384     10.35284     15.36773         0.970464     -0.065274      0.257830
C      5.61067      6.59456     10.35284        -0.533882     -0.005475      0.025915
C     15.36773      6.59456     10.62556         0.536336      0.014500     -0.249780
C      5.61067     14.38384     10.62556        -0.320383      0.978727      0.081191
C     15.36773     14.38384     10.35284         0.299728      1.049791      0.049175
C      5.61067     10.35284      6.59456        -0.193081     -0.195504     -0.609928
C     15.36773     10.62556      6.59456         0.446758     -0.275369      0.114590
C      5.61067     10.62556     14.38384        -0.695107     -0.340860     -0.083780
C     15.36773     10.35284     14.38384         0.382823     -0.064436      1.028110
C     10.35284      6.59456      5.61067        -0.223760     -0.288421     -0.656585
C     10.62556      6.59456     15.36773        -0.266336      0.133518      0.452770
C     10.62556     14.38384      5.61067         0.192031      1.062421     -0.347634
C     10.35284     14.38384     15.36773         0.015255      0.545715      0.444725
C      6.59456      5.61067     10.35284        -0.142545     -0.754707      0.254964
C      6.59456     15.36773     10.62556        -1.001856      0.283532      0.080408
C     14.38384      5.61067     10.62556         0.499484     -0.557456     -0.367744
C     14.38384     15.36773     10.35284         0.220300      0.463243     -0.099316
C     10.40319      3.19606      7.29314         0.014315      0.676196     -0.476820
C     10.35913      4.25547      6.23373         0.087874     -0.721924     -0.023232
C      0.08601      7.29314      7.29314        -0.044370     -0.406609     -0.313220
C      0.13007      6.23373      6.23373        -0.022701      0.087083      0.575066
C      0.08601      3.19606      3.19606        -0.012034      1.271880      0.284607
C      0.13007      4.25547      4.25547         0.050772     -0.779273     -0.156260
C     10.40319      7.29314      3.19606         0.011841     -0.323147      0.326445
C     10.35913      6.23373      4.25547         0.025168      0.006325     -0.832879
C      7.29314     10.40319      3.19606        -0.316032      0.022542      0.564387
C      6.23373     10.35913      4.25547         0.198660      0.065257     -0.086238
C      7.29314      0.08601      7.29314        -0.515513     -0.065264     -0.377807
C      6.23373      0.13007      6.23373         0.677530     -0.055087      0.476717
C      3.19606      0.08601      3.19606         0.728541     -0.034255      0.568929
C      4.25547      0.13007      4.25547        -0.583154     -0.087916     -0.542790
C      3.19606     10.40319      7.29314         0.480884     -0.012999     -0.767953
C      4.25547     10.35913      6.23373        -0.385812      0.057190      0.198123
C      3.19606      7.29314     10.40319         0.296877     -1.277706      0.046158
C      4.25547      6.23373     10.35913        -0.788105      0.110677      0.151540
C      7.29314      7.29314      0.08601        -0.407282     -0.375209     -0.027048
C      6.23373      6.23373      0.13007         0.467128      0.214949     -0.016578
C      3.19606      3.19606      0.08601         0.488887      0.376422     -0.041303
C      4.25547      4.25547      0.13007        -0.159552     -0.647684     -0.035307
C      7.29314      3.19606     10.40319        -0.326189      0.440247      0.076906
C      6.23373      4.25547     10.35913         0.290168     -0.681825      0.146791
O     10.43466      3.58206      8.50569        -0.018714      0.105668      0.500814
O     10.54374     17.39634      8.50569         0.036867     -0.175493      0.486396
O     10.54374      3.58206     12.47271         0.053981     -0.089038     -0.184475
O     10.43466     17.39634     12.47271        -0.038973     -0.183344     -0.542868
O      8.50569     10.43466      3.58206         0.302800     -0.005082      0.025066
O      8.50569     10.54374     17.39634         0.627150      0.034776     -0.143804
O     12.47271     10.54374      3.58206        -0.711257      0.085539      0.095485
O     12.47271     10.43466     17.39634        -0.437105      0.024562     -0.108440
O      3.58206      8.50569     10.43466         0.177699      1.040541     -0.039552
O     17.39634      8.50569     10.54374        -0.159980      0.540758      0.076275
O      3.58206     12.47271     10.54374         0.085473     -0.370106      0.049201
O     17.39634     12.47271     10.43466        -0.156609     -0.546763     -0.022574
O      3.58206     10.43466      8.50569         0.078234     -0.067829      0.591565
O     17.39634     10.54374      8.50569        -0.110732      0.066257      0.526188
O      3.58206     10.54374     12.47271         0.040475      0.047142     -0.518743
O     17.39634     10.43466     12.47271        -0.223542     -0.037916     -0.607108
O     10.43466      8.50569      3.58206        -0.040114      0.452787      0.136859
O     10.54374      8.50569     17.39634         0.051314      0.531283     -0.159202
O     10.54374     12.47271      3.58206         0.004640     -1.021574      0.203917
O     10.43466     12.47271     17.39634         0.041839     -0.723739     -0.175318
O      8.50569      3.58206     10.43466         0.509681      0.146010     -0.055794
O      8.50569     17.39634     10.54374         0.487382     -0.196005      0.015232
O     12.47271      3.58206     10.54374        -0.631468      0.229144      0.011261
O     12.47271     17.39634     10.43466        -0.224495      0.066220     -0.054731
O     11.90042     11.90042     19.56718        -0.239084     -0.290119      0.247141
O     19.56718     19.56718     19.56718         0.311282      0.295444      0.301527
O     19.56718     11.90042     11.90042         0.291834     -0.264408     -0.233144
O     11.90042     19.56718     11.90042        -0.241671      0.291006     -0.329129
O      9.45224      1.03696      9.45224        -0.018602      0.088543     -0.073148
O      1.03696      9.45224      9.45224         0.091869     -0.092194     -0.136991
O      1.03696      1.03696      1.03696         0.090507      0.189093      0.051130
O      9.45224      9.45224      1.03696        -0.107946     -0.103923      0.035129
Zr     10.48920      2.52580     10.48920        -0.127029     -0.286953     -0.037742
Zr     10.48920     18.45260     10.48920        -0.075337      0.214784      0.079210
Zr     10.48920     10.48920      2.52580         0.025104     -0.401676     -0.257970
Zr     10.48920     10.48920     18.45260        -0.280670     -0.092302      0.322227
Zr      2.52580     10.48920     10.48920        -0.380148      0.238898      0.288884
Zr     18.45260     10.48920     10.48920         0.235844     -0.005496     -0.225244
Pd     13.60731      8.96898      9.23097         0.006139      0.007402     -0.011531
Pd      5.62927      9.87885     10.14308         0.003175     -0.006217     -0.000117
Pd      6.78062     11.85953     11.71010        -0.004966     -0.002951      0.001123
Pd     12.05664     13.00984      7.37814         0.006571      0.000759     -0.012747
Pd     11.88153      7.73709      7.46716        -0.001799     -0.000245     -0.001183
Pd      8.31227      6.85234      6.58928         0.004394      0.000917     -0.018003
Pd     10.64220     11.17375      5.64604        -0.014981     -0.001825     -0.002803
Pd     14.39615      8.55141      6.74776         0.001784      0.000032     -0.002707
Pd      9.67804     11.72442      8.12127        -0.008524      0.003649      0.006712
Pd      6.76549      6.79802     12.32062        -0.011171     -0.002181      0.002856
Pd      6.53193      8.05203      8.06548         0.015894      0.038488     -0.043385
Pd      6.53575      8.50134     14.35253        -0.004282     -0.003296      0.011793
Pd     11.50047      6.52650      9.94646        -0.003470      0.005868     -0.002050
Pd      9.51482      9.19912      7.14371        -0.005483      0.007345      0.011143
Pd      8.97995     13.98069      9.32277        -0.000140      0.006742      0.005287
Pd      9.47485      7.37357     11.73060        -0.009405     -0.002587     -0.008904
Pd     10.61717      8.98696      9.68744         0.001917     -0.011995      0.000552
Pd      9.33930     11.53108     10.70565         0.000624      0.016342      0.012936
Pd      8.90568      7.04993      9.15385        -0.018136      0.013029     -0.018110
Pd      8.55295      6.57913     14.25018         0.001269      0.000056     -0.006973
Pd      7.65522      9.33572     11.98104        -0.008677     -0.005095      0.018276
Pd     11.97556     10.37943      7.72858        -0.013817     -0.002759     -0.000160
Pd      7.13177     12.01053      9.06408        -0.000207      0.002341     -0.000332
Pd      8.12498      9.60305      9.37868         0.008187      0.011316      0.036250
Pd     14.02317      6.48931      8.51747        -0.004066      0.005998      0.003229
Pd     12.62162      8.39406     11.58669        -0.000926      0.004901     -0.004052
Pd      8.77349     11.57705     13.40364        -0.003819      0.002139      0.001243
Pd     13.89181     11.94309      8.96264         0.002935     -0.007551      0.001542
Pd     12.96077     10.70015     13.06138        -0.011517      0.005327      0.004692
Pd     14.79466     10.45218     11.09828        -0.004162     -0.003669      0.008897
Pd     12.08123     10.90181     10.52608        -0.014090     -0.006437      0.009906
Pd     11.43866     13.35516      9.94234         0.001782     -0.006306     -0.007490
Pd     13.60341     12.92783     11.62834        -0.002496     -0.001317      0.001272
Pd     11.12593     12.60892     12.53884        -0.008364      0.002836      0.001364
Pd     10.95925     11.05796     14.81370        -0.004752      0.001405      0.001115
Pd     10.52205      9.74192     12.38123        -0.008720     -0.002430      0.007607
Pd      9.08765      9.14343     14.41458        -0.005405     -0.006182      0.003957
Pd      8.83113     13.85129     12.01665        -0.004604     -0.005426      0.003849
