152
# total energy = -1004.36456986 eVH     10.35389      5.87395      7.64558        -0.123670      0.164247      0.647047
H     10.62451     15.10445      7.64558        -0.235858     -0.151131      0.616158
H     10.62451      5.87395     13.33282         0.429681      0.034038     -0.903140
H     10.35389     15.10445     13.33282         0.062193     -0.182950     -0.528423
H      7.64558     10.35389      5.87395         0.375547      0.052115      0.140194
H      7.64558     10.62451     15.10445         0.832689      0.588503      0.016686
H     13.33282     10.62451      5.87395        -0.448530      0.011816      0.222114
H     13.33282     10.35389     15.10445        -0.785032     -0.219484      0.024884
H      5.87395      7.64558     10.35389         0.126629      1.762362      0.124852
H     15.10445      7.64558     10.62451        -0.079514      0.499532      0.233609
H      5.87395     13.33282     10.62451         0.208591     -0.603803     -0.014073
H     15.10445     13.33282     10.35389         0.236823     -1.402755     -0.438440
H      5.87395     10.35389      7.64558         0.127164      0.039199      0.520648
H     15.10445     10.62451      7.64558        -0.191413      0.967331      1.437504
H      5.87395     10.62451     13.33282        -0.095750      0.588920     -1.351190
H     15.10445     10.35389     13.33282         0.113616     -0.201356     -0.774672
H     10.35389      7.64558      5.87395         0.338109      1.298369      0.156875
H     10.62451      7.64558     15.10445         0.542552      0.791396     -0.087609
H     10.62451     13.33282      5.87395        -0.574267     -0.756889      0.275942
H     10.35389     13.33282     15.10445        -0.231047     -0.521502     -0.332780
H      7.64558      5.87395     10.35389         1.183386     -0.247865     -0.082879
H      7.64558     15.10445     10.62451         0.817004     -0.199812     -0.036532
H     13.33282      5.87395     10.62451        -0.598441      0.115729      0.659809
H     13.33282     15.10445     10.35389        -0.464529     -0.022262     -0.190053
H     12.45634     12.45634     19.01126         0.271041      0.248988     -0.231461
H     19.01126     19.01126     19.01126        -0.265933     -0.268599     -0.219413
H     19.01126     12.45634     12.45634        -0.277663      0.253069      0.229938
H     12.45634     19.01126     12.45634         0.248394     -0.281314      0.234289
C     10.35284      5.61067      6.59456        -0.137327     -0.801361     -0.474700
C     10.62556     15.36773      6.59456         0.119620      0.295959     -0.211155
C     10.62556      5.61067     14.38384        -0.051336     -0.522640      0.579432
C     10.35284     15.36773     14.38384         0.005754      0.243731      0.512649
C      6.59456     10.35284      5.61067        -0.530333      0.059661     -0.368198
C      6.59456     10.62556     15.36773        -0.975172      0.232393      0.755233
C     14.38384     10.62556      5.61067         0.738836      0.039204     -0.951666
C     14.38384     10.35284     15.36773         0.908014     -0.120573      0.407830
C      5.61067      6.59456     10.35284        -0.893239     -1.034059     -0.483598
C     15.36773      6.59456     10.62556         0.714579      0.014244     -0.245867
C      5.61067     14.38384     10.62556        -0.237437      0.670417      0.015748
C     15.36773     14.38384     10.35284         0.300969      1.383537      0.028881
C      5.61067     10.35284      6.59456        -0.275300      0.016618     -0.684225
C     15.36773     10.62556      6.59456         0.446890     -0.379407     -1.058903
C      5.61067     10.62556     14.38384        -0.431707      0.006788      1.081155
C     15.36773     10.35284     14.38384         0.442729     -0.060099      0.892229
C     10.35284      6.59456      5.61067        -0.099317     -0.972474     -0.374626
C     10.62556      6.59456     15.36773         0.076156     -0.708342      0.514066
C     10.62556     14.38384      5.61067         0.151681      1.023706     -0.394226
C     10.35284     14.38384     15.36773        -0.019215      1.008225      0.491179
C      6.59456      5.61067     10.35284        -0.595180     -1.249936      0.083488
C      6.59456     15.36773     10.62556        -0.948705      0.165484      0.114230
C     14.38384      5.61067     10.62556        -0.143710     -0.505620     -0.324581
C     14.38384     15.36773     10.35284         0.197962      0.640264     -0.074993
C     10.40319      3.19606      7.29314         0.004073      0.810506     -0.605741
C     10.35913      4.25547      6.23373         0.025031     -0.528647      0.125398
C      0.08601      7.29314      7.29314        -0.022785     -0.986009     -0.245691
C      0.13007      6.23373      6.23373        -0.064400      0.409405      0.347526
C      0.08601      3.19606      3.19606         0.052079      1.273494      0.164464
C      0.13007      4.25547      4.25547        -0.014747     -0.350835     -0.445805
C     10.40319      7.29314      3.19606        -0.010641     -0.536955      0.238397
C     10.35913      6.23373      4.25547        -0.021359      0.129482     -0.697659
C      7.29314     10.40319      3.19606        -0.357008      0.024531      0.363425
C      6.23373     10.35913      4.25547         0.222254      0.083190     -0.098517
C      7.29314      0.08601      7.29314        -1.062822     -0.084952     -0.399942
C      6.23373      0.13007      6.23373         0.648807     -0.190646      0.406517
C      3.19606      0.08601      3.19606         1.162423     -0.019468      0.328383
C      4.25547      0.13007      4.25547        -0.622379     -0.159860     -0.200387
C      3.19606     10.40319      7.29314         0.555636      0.031056     -0.281019
C      4.25547     10.35913      6.23373        -0.233177      0.094735      0.211828
C      3.19606      7.29314     10.40319         0.320291     -0.679154      0.038414
C      4.25547      6.23373     10.35913        -1.066947      0.071837      0.181949
C      7.29314      7.29314      0.08601        -0.487013     -0.493540     -0.018548
C      6.23373      6.23373      0.13007         0.502777      0.319308      0.023731
C      3.19606      3.19606      0.08601         0.576301      0.424460     -0.021793
C      4.25547      4.25547      0.13007        -0.050672     -0.764536     -0.106822
C      7.29314      3.19606     10.40319        -0.396328      0.498712      0.051423
C      6.23373      4.25547     10.35913         0.570933     -0.738831      0.198180
O     10.43466      3.58206      8.50569         0.020076      0.125261      0.546294
O     10.54374     17.39634      8.50569         0.051866     -0.032443      0.295035
O     10.54374      3.58206     12.47271        -0.002445     -0.070338     -0.167608
O     10.43466     17.39634     12.47271        -0.037628     -0.118692     -0.429381
O      8.50569     10.43466      3.58206         0.490164     -0.034248      0.101660
O      8.50569     10.54374     17.39634         0.836815     -0.071595     -0.171364
O     12.47271     10.54374      3.58206        -0.871983      0.132407      0.112179
O     12.47271     10.43466     17.39634        -0.615485      0.026583     -0.167874
O      3.58206      8.50569     10.43466         0.183209      0.750220     -0.021937
O     17.39634      8.50569     10.54374        -0.145820      0.670107      0.026039
O      3.58206     12.47271     10.54374         0.108576     -0.554566      0.053962
O     17.39634     12.47271     10.43466        -0.169862     -0.598203     -0.047307
O      3.58206     10.43466      8.50569         0.084138     -0.047414      0.416434
O     17.39634     10.54374      8.50569         0.042111      0.094509      0.374942
O      3.58206     10.54374     12.47271        -0.017261      0.029880     -0.265744
O     17.39634     10.43466     12.47271        -0.145962     -0.030760     -0.532485
O     10.43466      8.50569      3.58206        -0.029252      0.615864      0.174026
O     10.54374      8.50569     17.39634        -0.098014      0.806309     -0.212425
O     10.54374     12.47271      3.58206         0.104752     -0.958053      0.154819
O     10.43466     12.47271     17.39634         0.056848     -0.656646     -0.155577
O      8.50569      3.58206     10.43466         0.571482      0.142336     -0.047970
O      8.50569     17.39634     10.54374         0.570924     -0.153752      0.012001
O     12.47271      3.58206     10.54374        -0.715203      0.148662      0.016646
O     12.47271     17.39634     10.43466        -0.478967     -0.097713     -0.031918
O     11.90042     11.90042     19.56718        -0.325481     -0.279904      0.244890
O     19.56718     19.56718     19.56718         0.297354      0.317351      0.213534
O     19.56718     11.90042     11.90042         0.344172     -0.276867     -0.242680
O     11.90042     19.56718     11.90042        -0.273144      0.350792     -0.240260
O      9.45224      1.03696      9.45224        -0.028217      0.088630     -0.130407
O      1.03696      9.45224      9.45224         0.060081     -0.027276     -0.121627
O      1.03696      1.03696      1.03696         0.066957      0.096325      0.098751
O      9.45224      9.45224      1.03696        -0.044000     -0.033711      0.082869
Zr     10.48920      2.52580     10.48920        -0.069565     -0.214772      0.084180
Zr     10.48920     18.45260     10.48920         0.022659      0.062402      0.117135
Zr     10.48920     10.48920      2.52580        -0.321145     -0.337777     -0.376241
Zr     10.48920     10.48920     18.45260         0.153687     -0.008040      0.394859
Zr      2.52580     10.48920     10.48920        -0.165849      0.015892     -0.062564
Zr     18.45260     10.48920     10.48920         0.159058     -0.023257      0.098274
Pd     12.90068      8.41504      9.84603        -0.030737      0.037942     -0.043577
Pd      6.49111      9.55125     10.37826        -0.066978      0.031230     -0.109643
Pd      6.95715     11.66593     11.81716        -0.013142      0.042128     -0.025242
Pd     12.33991     13.49827      7.23371        -0.001502     -0.146086      0.018430
Pd     12.12129      7.91438      7.17962         0.020358     -0.034825     -0.000771
Pd      8.49760      7.31754      6.87184         0.002639     -0.021530      0.020200
Pd     11.44559     11.49955      5.63106         0.004973     -0.015808      0.060875
Pd     14.53929      8.87644      7.82011        -0.023303     -0.059807     -0.088493
Pd      9.84798     11.78859      7.93962         0.024132      0.051124      0.039470
Pd      7.07683      7.14107     12.00374        -0.071192     -0.019977     -0.069172
Pd      6.39333      7.51775      8.41713        -0.023639      0.036015      0.094026
Pd      7.25408      9.23969     13.50220         0.076309     -0.182144      0.011655
Pd     11.40214      6.24749      9.23571         0.045540      0.021811     -0.020636
Pd      9.99855      9.55150      6.46820        -0.010203     -0.029403      0.060245
Pd      9.08718     13.97054      9.38331        -0.006488      0.000996     -0.029821
Pd     10.90261      7.37369     11.51506         0.012519     -0.038799     -0.065090
Pd     10.43627      9.07545      9.20284        -0.000597      0.018570     -0.066276
Pd      9.42000     11.54625     10.56275        -0.033778     -0.002661     -0.033727
Pd      8.85109      7.10523      9.57404         0.004028     -0.046293     -0.018146
Pd      9.14230      7.37962     13.55908        -0.009901      0.033242      0.015559
Pd      8.86990      9.15774     11.37652        -0.029826      0.058906      0.081735
Pd     12.26035     10.56337      7.98366        -0.047635     -0.067347     -0.047092
Pd      7.21221     11.95495      9.13683         0.049361     -0.000355      0.043568
Pd      8.09839      9.62834      8.28362        -0.019181     -0.000042      0.071630
Pd     14.03058      6.36011      8.50955        -0.060985      0.090482     -0.002066
Pd     13.29183      8.45019     12.41445        -0.113312      0.057896      0.010756
Pd      9.06711     11.39390     13.30886         0.093839      0.100462     -0.029194
Pd     13.99270     12.24107      8.87090        -0.057392      0.020146      0.059464
Pd     13.18141     11.09636     13.11918        -0.006018     -0.021109      0.064560
Pd     14.54353     10.34894     10.70400        -0.016315     -0.002329      0.083369
Pd     11.90893     10.70279     10.76832         0.038973     -0.082571     -0.090984
Pd     11.55907     13.14962      9.70473        -0.034944      0.004494      0.013616
Pd     13.65437     13.00974     11.48952        -0.070304      0.029703      0.051408
Pd     11.15419     12.77822     12.36251         0.105703     -0.004718     -0.010562
Pd     11.24332     11.58523     14.86391        -0.016436     -0.091612     -0.040918
Pd     10.97690      9.57584     13.00325         0.027144      0.007906     -0.000508
Pd      9.48921      9.55263     15.23012         0.056783      0.007088      0.064468
Pd      8.72659     13.77849     12.04219        -0.005445     -0.069124     -0.003252
