152
# total energy = -1005.97846885 eVH     10.35389      5.87395      7.64558         0.254003      0.037849      0.636886
H     10.62451     15.10445      7.64558        -0.109015     -0.143575      0.527949
H     10.62451      5.87395     13.33282         0.488201      0.120558     -0.586630
H     10.35389     15.10445     13.33282         0.070367     -0.184873     -0.544284
H      7.64558     10.35389      5.87395         0.370161      0.044290      0.172597
H      7.64558     10.62451     15.10445         0.689980      0.469397     -0.042766
H     13.33282     10.62451      5.87395        -0.530845      0.416574      0.075005
H     13.33282     10.35389     15.10445        -0.798051     -0.093681      0.002049
H      5.87395      7.64558     10.35389         0.252061      0.795003     -0.283928
H     15.10445      7.64558     10.62451        -0.095390      0.484495      0.284145
H      5.87395     13.33282     10.62451         0.156693     -0.697896     -0.162486
H     15.10445     13.33282     10.35389        -0.004385     -1.044743     -0.329650
H      5.87395     10.35389      7.64558         0.252101      0.145871      0.604674
H     15.10445     10.62451      7.64558        -0.111961      0.408634      0.769539
H      5.87395     10.62451     13.33282         0.141408      0.336320     -0.694377
H     15.10445     10.35389     13.33282        -0.041105     -0.074416     -0.701640
H     10.35389      7.64558      5.87395         0.366105      1.051671     -0.008117
H     10.62451      7.64558     15.10445         0.536277      0.535980     -0.118480
H     10.62451     13.33282      5.87395        -0.398003     -0.836442      0.189789
H     10.35389     13.33282     15.10445        -0.042678     -0.433090     -0.217526
H      7.64558      5.87395     10.35389         0.853251      0.087221     -0.289161
H      7.64558     15.10445     10.62451         0.828305     -0.201367      0.000020
H     13.33282      5.87395     10.62451        -0.794104      0.189367      0.591601
H     13.33282     15.10445     10.35389        -0.443303     -0.107227     -0.135868
H     12.45634     12.45634     19.01126         0.235616      0.270796     -0.239777
H     19.01126     19.01126     19.01126        -0.261983     -0.240835     -0.261730
H     19.01126     12.45634     12.45634        -0.266857      0.268208      0.219493
H     12.45634     19.01126     12.45634         0.232696     -0.256988      0.276215
C     10.35284      5.61067      6.59456        -0.430630     -0.688670      0.145337
C     10.62556     15.36773      6.59456         0.066187      0.363449     -0.308168
C     10.62556      5.61067     14.38384        -0.329436     -0.375971     -0.295116
C     10.35284     15.36773     14.38384        -0.006528      0.340787      0.532703
C      6.59456     10.35284      5.61067        -0.289538     -0.006151     -0.326157
C      6.59456     10.62556     15.36773        -0.249416     -0.217394      0.794942
C     14.38384     10.62556      5.61067        -0.240151     -0.396672     -0.525442
C     14.38384     10.35284     15.36773         0.970703     -0.064351      0.254019
C      5.61067      6.59456     10.35284        -0.536560     -0.010096      0.038255
C     15.36773      6.59456     10.62556         0.536017      0.015338     -0.249975
C      5.61067     14.38384     10.62556        -0.322229      0.977928      0.079612
C     15.36773     14.38384     10.35284         0.301324      1.046767      0.049425
C      5.61067     10.35284      6.59456        -0.192667     -0.202787     -0.608930
C     15.36773     10.62556      6.59456         0.444910     -0.275120      0.114965
C      5.61067     10.62556     14.38384        -0.698649     -0.345361     -0.085607
C     15.36773     10.35284     14.38384         0.382406     -0.064140      1.024289
C     10.35284      6.59456      5.61067        -0.213917     -0.286160     -0.655896
C     10.62556      6.59456     15.36773        -0.266954      0.130909      0.452837
C     10.62556     14.38384      5.61067         0.197271      1.061567     -0.345877
C     10.35284     14.38384     15.36773         0.016202      0.544572      0.441466
C      6.59456      5.61067     10.35284        -0.140403     -0.744335      0.253875
C      6.59456     15.36773     10.62556        -1.004641      0.285081      0.079762
C     14.38384      5.61067     10.62556         0.492834     -0.553167     -0.368018
C     14.38384     15.36773     10.35284         0.217740      0.460394     -0.100024
C     10.40319      3.19606      7.29314         0.013700      0.677349     -0.479931
C     10.35913      4.25547      6.23373         0.087894     -0.719188     -0.020266
C      0.08601      7.29314      7.29314        -0.044221     -0.408185     -0.314813
C      0.13007      6.23373      6.23373        -0.023029      0.088403      0.572921
C      0.08601      3.19606      3.19606        -0.012198      1.274377      0.283795
C      0.13007      4.25547      4.25547         0.050667     -0.779642     -0.157373
C     10.40319      7.29314      3.19606         0.011636     -0.323664      0.327324
C     10.35913      6.23373      4.25547         0.025579      0.005694     -0.839306
C      7.29314     10.40319      3.19606        -0.317899      0.022402      0.562739
C      6.23373     10.35913      4.25547         0.198526      0.064447     -0.087178
C      7.29314      0.08601      7.29314        -0.515030     -0.065390     -0.376842
C      6.23373      0.13007      6.23373         0.678707     -0.055168      0.478761
C      3.19606      0.08601      3.19606         0.728363     -0.034110      0.570182
C      4.25547      0.13007      4.25547        -0.581752     -0.086636     -0.544969
C      3.19606     10.40319      7.29314         0.479026     -0.013292     -0.765738
C      4.25547     10.35913      6.23373        -0.392073      0.054893      0.197421
C      3.19606      7.29314     10.40319         0.295283     -1.278725      0.045560
C      4.25547      6.23373     10.35913        -0.781676      0.108860      0.150817
C      7.29314      7.29314      0.08601        -0.407930     -0.375313     -0.027191
C      6.23373      6.23373      0.13007         0.465562      0.215314     -0.016836
C      3.19606      3.19606      0.08601         0.488892      0.375030     -0.041233
C      4.25547      4.25547      0.13007        -0.156825     -0.648172     -0.035443
C      7.29314      3.19606     10.40319        -0.325883      0.437599      0.076474
C      6.23373      4.25547     10.35913         0.285681     -0.682568      0.145466
O     10.43466      3.58206      8.50569        -0.017743      0.105966      0.502621
O     10.54374     17.39634      8.50569         0.036436     -0.175463      0.487031
O     10.54374      3.58206     12.47271         0.054099     -0.089820     -0.183870
O     10.43466     17.39634     12.47271        -0.038842     -0.183614     -0.544304
O      8.50569     10.43466      3.58206         0.304321     -0.004818      0.025497
O      8.50569     10.54374     17.39634         0.626962      0.034868     -0.144120
O     12.47271     10.54374      3.58206        -0.710248      0.085015      0.094361
O     12.47271     10.43466     17.39634        -0.437285      0.024377     -0.109404
O      3.58206      8.50569     10.43466         0.177192      1.042548     -0.040468
O     17.39634      8.50569     10.54374        -0.160474      0.540783      0.076164
O      3.58206     12.47271     10.54374         0.085952     -0.369822      0.049132
O     17.39634     12.47271     10.43466        -0.156558     -0.546506     -0.023060
O      3.58206     10.43466      8.50569         0.078952     -0.067529      0.589990
O     17.39634     10.54374      8.50569        -0.110954      0.066225      0.525501
O      3.58206     10.54374     12.47271         0.041015      0.047238     -0.520889
O     17.39634     10.43466     12.47271        -0.223391     -0.038771     -0.605889
O     10.43466      8.50569      3.58206        -0.039930      0.453150      0.136437
O     10.54374      8.50569     17.39634         0.050845      0.531570     -0.159508
O     10.54374     12.47271      3.58206         0.004264     -1.021277      0.201602
O     10.43466     12.47271     17.39634         0.041391     -0.723941     -0.174924
O      8.50569      3.58206     10.43466         0.510061      0.146169     -0.055612
O      8.50569     17.39634     10.54374         0.487267     -0.196317      0.014602
O     12.47271      3.58206     10.54374        -0.631557      0.229299      0.010272
O     12.47271     17.39634     10.43466        -0.222545      0.067451     -0.055190
O     11.90042     11.90042     19.56718        -0.239244     -0.290181      0.247184
O     19.56718     19.56718     19.56718         0.311005      0.295191      0.301304
O     19.56718     11.90042     11.90042         0.292022     -0.264522     -0.233288
O     11.90042     19.56718     11.90042        -0.241445      0.290807     -0.329957
O      9.45224      1.03696      9.45224        -0.018780      0.088041     -0.073246
O      1.03696      9.45224      9.45224         0.092069     -0.092217     -0.136762
O      1.03696      1.03696      1.03696         0.091251      0.189084      0.050051
O      9.45224      9.45224      1.03696        -0.108601     -0.104391      0.033996
Zr     10.48920      2.52580     10.48920        -0.127934     -0.287127     -0.037634
Zr     10.48920     18.45260     10.48920        -0.075042      0.215360      0.080118
Zr     10.48920     10.48920      2.52580         0.025999     -0.403280     -0.257561
Zr     10.48920     10.48920     18.45260        -0.279259     -0.091749      0.321679
Zr      2.52580     10.48920     10.48920        -0.380902      0.240218      0.288350
Zr     18.45260     10.48920     10.48920         0.236461     -0.003476     -0.224397
Pd     13.60260      8.96689      9.22955         0.007173      0.009516     -0.009560
Pd      5.63030      9.87423     10.14404        -0.001839     -0.003991     -0.003421
Pd      6.78038     11.85634     11.70483        -0.004634     -0.002501      0.004975
Pd     12.06527     13.01002      7.36853        -0.001468     -0.005447     -0.001504
Pd     11.88337      7.73851      7.45972        -0.002989      0.002776      0.001391
Pd      8.31339      6.85797      6.57852        -0.003168     -0.007003     -0.011268
Pd     10.63945     11.17418      5.64385        -0.015889     -0.002638      0.006103
Pd     14.40075      8.55100      6.74856        -0.000996     -0.001394     -0.006711
Pd      9.67789     11.73062      8.11996        -0.003909     -0.002168      0.007375
Pd      6.75871      6.79783     12.32291        -0.006911     -0.002069      0.004158
Pd      6.53790      8.06628      8.05355         0.014732      0.056581     -0.044000
Pd      6.53410      8.49914     14.35976        -0.003289     -0.001566      0.004454
Pd     11.49756      6.52437      9.93629        -0.002784     -0.005656      0.005313
Pd      9.51266      9.20386      7.14638        -0.014178     -0.001103      0.007541
Pd      8.98198     13.98682      9.32526        -0.001159      0.000792      0.009160
Pd      9.47191      7.37079     11.72362        -0.010241     -0.001139     -0.004589
Pd     10.61652      8.98296      9.68380         0.003813     -0.002008     -0.001055
Pd      9.33866     11.53866     10.70505         0.001002      0.004329      0.008460
Pd      8.89854      7.05417      9.14530        -0.008813      0.001845     -0.007035
Pd      8.55308      6.57607     14.24493         0.000654      0.004363     -0.003120
Pd      7.65162      9.33214     11.98764        -0.009498     -0.002529      0.011704
Pd     11.97225     10.38087      7.72783        -0.011322      0.001070     -0.001539
Pd      7.13304     12.01465      9.05846        -0.003632      0.001014      0.005441
Pd      8.12641      9.60884      9.38768         0.006040      0.003309      0.022745
Pd     14.02152      6.48841      8.51685        -0.002934      0.004590      0.002007
Pd     12.61140      8.38986     11.58577         0.008415      0.006502     -0.005498
Pd      8.76959     11.57609     13.40433        -0.002242      0.000991      0.001308
Pd     13.89095     11.93837      8.96347        -0.005082     -0.006648      0.002056
Pd     12.95452     10.69605     13.06196        -0.005203      0.004460      0.006451
Pd     14.78935     10.44582     11.10047        -0.004737     -0.002497      0.008768
Pd     12.07731     10.89747     10.52742        -0.006532      0.001948      0.003264
Pd     11.44150     13.34900      9.93353         0.001673      0.000222     -0.002585
Pd     13.60193     12.92271     11.62745        -0.001678     -0.000888      0.000402
Pd     11.12291     12.60911     12.53684        -0.001792      0.006893      0.001140
Pd     10.95603     11.05704     14.81298        -0.005690      0.004633      0.002052
Pd     10.51316      9.74282     12.37852        -0.001050     -0.008565      0.003541
Pd      9.08698      9.13999     14.41620        -0.004464      0.003005      0.006122
Pd      8.82668     13.85107     12.01993        -0.006632      0.004597      0.009984
