114
# total energy = -848.60735572 eVH     10.35400      5.87572      7.65045         0.000261      0.005511      0.001268
H     10.62440     15.10268      7.65045        -0.000261     -0.005511      0.001268
H     10.62440      5.87572     13.32795        -0.000261      0.005511     -0.001268
H     10.35400     15.10268     13.32795         0.000261     -0.005511     -0.001268
H      7.65045     10.35400      5.87572         0.001268      0.000261      0.005511
H      7.65045     10.62440     15.10268         0.001268     -0.000261     -0.005511
H     13.32795     10.62440      5.87572        -0.001268     -0.000261      0.005511
H     13.32795     10.35400     15.10268        -0.001268      0.000261     -0.005511
H      5.87572      7.65045     10.35400         0.005511      0.001268      0.000261
H     15.10268      7.65045     10.62440        -0.005511      0.001268     -0.000261
H      5.87572     13.32795     10.62440         0.005511     -0.001268     -0.000261
H     15.10268     13.32795     10.35400        -0.005511     -0.001268      0.000261
H      5.87572     10.35400      7.65045         0.005511      0.000261      0.001268
H     15.10268     10.62440      7.65045        -0.005511     -0.000261      0.001268
H      5.87572     10.62440     13.32795         0.005511     -0.000261     -0.001268
H     15.10268     10.35400     13.32795        -0.005511      0.000261     -0.001268
H     10.35400      7.65045      5.87572         0.000261      0.001268      0.005511
H     10.62440      7.65045     15.10268        -0.000261      0.001268     -0.005511
H     10.62440     13.32795      5.87572        -0.000261     -0.001268      0.005511
H     10.35400     13.32795     15.10268         0.000261     -0.001268     -0.005511
H      7.65045      5.87572     10.35400         0.001268      0.005511      0.000261
H      7.65045     15.10268     10.62440         0.001268     -0.005511     -0.000261
H     13.32795      5.87572     10.62440        -0.001268      0.005511     -0.000261
H     13.32795     15.10268     10.35400        -0.001268     -0.005511      0.000261
H     12.45759     12.45759     19.01001         0.051467      0.051467     -0.051467
H     19.01001     19.01001     19.01001        -0.051467     -0.051467     -0.051467
H     19.01001     12.45759     12.45759        -0.051467      0.051467      0.051467
H     12.45759     19.01001     12.45759         0.051467     -0.051467      0.051467
C     10.35235      5.60945      6.59318        -0.002829      0.078664     -0.005534
C     10.62605     15.36895      6.59318         0.002829     -0.078664     -0.005534
C     10.62605      5.60945     14.38522         0.002829      0.078664      0.005534
C     10.35235     15.36895     14.38522        -0.002829     -0.078664      0.005534
C      6.59318     10.35235      5.60945        -0.005534     -0.002829      0.078664
C      6.59318     10.62605     15.36895        -0.005534      0.002829     -0.078664
C     14.38522     10.62605      5.60945         0.005534      0.002829      0.078664
C     14.38522     10.35235     15.36895         0.005534     -0.002829     -0.078664
C      5.60945      6.59318     10.35235         0.078664     -0.005534     -0.002829
C     15.36895      6.59318     10.62605        -0.078664     -0.005534      0.002829
C      5.60945     14.38522     10.62605         0.078664      0.005534      0.002829
C     15.36895     14.38522     10.35235        -0.078664      0.005534     -0.002829
C      5.60945     10.35235      6.59318         0.078664     -0.002829     -0.005534
C     15.36895     10.62605      6.59318        -0.078664      0.002829     -0.005534
C      5.60945     10.62605     14.38522         0.078664      0.002829      0.005534
C     15.36895     10.35235     14.38522        -0.078664     -0.002829      0.005534
C     10.35235      6.59318      5.60945        -0.002829     -0.005534      0.078664
C     10.62605      6.59318     15.36895         0.002829     -0.005534     -0.078664
C     10.62605     14.38522      5.60945         0.002829      0.005534      0.078664
C     10.35235     14.38522     15.36895        -0.002829      0.005534     -0.078664
C      6.59318      5.60945     10.35235        -0.005534      0.078664     -0.002829
C      6.59318     15.36895     10.62605        -0.005534     -0.078664      0.002829
C     14.38522      5.60945     10.62605         0.005534      0.078664      0.002829
C     14.38522     15.36895     10.35235         0.005534     -0.078664     -0.002829
C     10.40434      3.19629      7.29291        -0.007195      0.002011     -0.002011
C     10.35999      4.25484      6.23436         0.015414     -0.069008      0.069008
C      0.08486      7.29291      7.29291         0.007195     -0.002011     -0.002011
C      0.12921      6.23436      6.23436        -0.015414      0.069008      0.069008
C      0.08486      3.19629      3.19629         0.007195      0.002011      0.002011
C      0.12921      4.25484      4.25484        -0.015414     -0.069008     -0.069008
C     10.40434      7.29291      3.19629        -0.007195     -0.002011      0.002011
C     10.35999      6.23436      4.25484         0.015414      0.069008     -0.069008
C      7.29291     10.40434      3.19629        -0.002011     -0.007195      0.002011
C      6.23436     10.35999      4.25484         0.069008      0.015414     -0.069008
C      7.29291      0.08486      7.29291        -0.002011      0.007195     -0.002011
C      6.23436      0.12921      6.23436         0.069008     -0.015414      0.069008
C      3.19629      0.08486      3.19629         0.002011      0.007195      0.002011
C      4.25484      0.12921      4.25484        -0.069008     -0.015414     -0.069008
C      3.19629     10.40434      7.29291         0.002011     -0.007195     -0.002011
C      4.25484     10.35999      6.23436        -0.069008      0.015414      0.069008
C      3.19629      7.29291     10.40434         0.002011     -0.002011     -0.007195
C      4.25484      6.23436     10.35999        -0.069008      0.069008      0.015414
C      7.29291      7.29291      0.08486        -0.002011     -0.002011      0.007195
C      6.23436      6.23436      0.12921         0.069008      0.069008     -0.015414
C      3.19629      3.19629      0.08486         0.002011      0.002011      0.007195
C      4.25484      4.25484      0.12921        -0.069008     -0.069008     -0.015414
C      7.29291      3.19629     10.40434        -0.002011      0.002011     -0.007195
C      6.23436      4.25484     10.35999         0.069008     -0.069008      0.015414
O     10.43314      3.58403      8.51368        -0.012608     -0.037626     -0.031067
O     10.54526     17.39437      8.51368         0.012608      0.037626     -0.031067
O     10.54526      3.58403     12.46472         0.012608     -0.037626      0.031067
O     10.43314     17.39437     12.46472        -0.012608      0.037626      0.031067
O      8.51368     10.43314      3.58403        -0.031067     -0.012608     -0.037626
O      8.51368     10.54526     17.39437        -0.031067      0.012608      0.037626
O     12.46472     10.54526      3.58403         0.031067      0.012608     -0.037626
O     12.46472     10.43314     17.39437         0.031067     -0.012608      0.037626
O      3.58403      8.51368     10.43314        -0.037626     -0.031067     -0.012608
O     17.39437      8.51368     10.54526         0.037626     -0.031067      0.012608
O      3.58403     12.46472     10.54526        -0.037626      0.031067      0.012608
O     17.39437     12.46472     10.43314         0.037626      0.031067     -0.012608
O      3.58403     10.43314      8.51368        -0.037626     -0.012608     -0.031067
O     17.39437     10.54526      8.51368         0.037626      0.012608     -0.031067
O      3.58403     10.54526     12.46472        -0.037626      0.012608      0.031067
O     17.39437     10.43314     12.46472         0.037626     -0.012608      0.031067
O     10.43314      8.51368      3.58403        -0.012608     -0.031067     -0.037626
O     10.54526      8.51368     17.39437         0.012608     -0.031067      0.037626
O     10.54526     12.46472      3.58403         0.012608      0.031067     -0.037626
O     10.43314     12.46472     17.39437        -0.012608      0.031067      0.037626
O      8.51368      3.58403     10.43314        -0.031067     -0.037626     -0.012608
O      8.51368     17.39437     10.54526        -0.031067      0.037626      0.012608
O     12.46472      3.58403     10.54526         0.031067     -0.037626      0.012608
O     12.46472     17.39437     10.43314         0.031067      0.037626     -0.012608
O     11.89756     11.89756     19.57004        -0.074052     -0.074052      0.074052
O     19.57004     19.57004     19.57004         0.074052      0.074052      0.074052
O     19.57004     11.89756     11.89756         0.074052     -0.074052     -0.074052
O     11.89756     19.57004     11.89756        -0.074052      0.074052     -0.074052
O      9.45022      1.03898      9.45022        -0.025062      0.025062     -0.025062
O      1.03898      9.45022      9.45022         0.025062     -0.025062     -0.025062
O      1.03898      1.03898      1.03898         0.025062      0.025062      0.025062
O      9.45022      9.45022      1.03898        -0.025062     -0.025062      0.025062
Zr     10.48920      2.52994     10.48920        -0.000000     -0.061235     -0.000000
Zr     10.48920     18.44846     10.48920        -0.000000      0.061235     -0.000000
Zr     10.48920     10.48920      2.52994        -0.000000      0.000000     -0.061235
Zr     10.48920     10.48920     18.44846        -0.000000      0.000000      0.061235
Zr      2.52994     10.48920     10.48920        -0.061235      0.000000     -0.000000
Zr     18.44846     10.48920     10.48920         0.061235      0.000000     -0.000000
