152
# total energy = -1003.20744772 eVH     10.35389      5.87395      7.64558        -0.087904      0.174396      0.848992
H     10.62451     15.10445      7.64558        -0.330523     -0.094936      1.127231
H     10.62451      5.87395     13.33282         0.054830      0.001261     -0.935656
H     10.35389     15.10445     13.33282        -0.050455     -0.181155     -0.788853
H      7.64558     10.35389      5.87395         0.660218      0.157309     -0.110145
H      7.64558     10.62451     15.10445         0.865697      0.554726      0.011507
H     13.33282     10.62451      5.87395        -0.719313      0.046650      0.211819
H     13.33282     10.35389     15.10445        -0.646884     -0.172370      0.011973
H      5.87395      7.64558     10.35389        -0.093304      1.814773      0.336111
H     15.10445      7.64558     10.62451        -0.038894      1.039381     -0.061836
H      5.87395     13.33282     10.62451         0.196174     -0.840423      0.111392
H     15.10445     13.33282     10.35389         0.015244     -1.101974     -0.172825
H      5.87395     10.35389      7.64558        -0.430634      0.213126      1.117490
H     15.10445     10.62451      7.64558         0.108559      0.737958      1.552995
H      5.87395     10.62451     13.33282        -0.048856      0.477559     -1.266982
H     15.10445     10.35389     13.33282         0.785988      0.101781     -1.038824
H     10.35389      7.64558      5.87395         0.398902      1.414402     -0.065404
H     10.62451      7.64558     15.10445         0.559695      1.097176     -0.014407
H     10.62451     13.33282      5.87395        -0.444440     -0.797493      0.080655
H     10.35389     13.33282     15.10445        -0.098461     -0.430943     -0.152570
H      7.64558      5.87395     10.35389         1.076907     -0.173420     -0.208384
H      7.64558     15.10445     10.62451         0.608908     -0.213214      0.019701
H     13.33282      5.87395     10.62451        -0.924522      0.051166      0.316880
H     13.33282     15.10445     10.35389        -0.359902     -0.103893     -0.035918
H     12.45634     12.45634     19.01126         0.265174      0.234366     -0.247327
H     19.01126     19.01126     19.01126        -0.265637     -0.259642     -0.226570
H     19.01126     12.45634     12.45634        -0.266937      0.259420      0.233038
H     12.45634     19.01126     12.45634         0.259386     -0.269827      0.228126
C     10.35284      5.61067      6.59456        -0.129054     -0.976295     -0.907905
C     10.62556     15.36773      6.59456         0.161820      0.429030     -0.809038
C     10.62556      5.61067     14.38384        -0.162043     -0.738317      1.007598
C     10.35284     15.36773     14.38384         0.054993      0.281453      0.845722
C      6.59456     10.35284      5.61067        -1.148082      0.160555     -0.793822
C      6.59456     10.62556     15.36773        -0.925336      0.191726      0.730505
C     14.38384     10.62556      5.61067         0.915520      0.128715     -0.843760
C     14.38384     10.35284     15.36773         1.278758      0.067191      0.714283
C      5.61067      6.59456     10.35284        -0.779216     -0.951054     -0.023359
C     15.36773      6.59456     10.62556         0.538071     -0.121356     -0.074035
C      5.61067     14.38384     10.62556        -0.409419      0.944062     -0.044980
C     15.36773     14.38384     10.35284         0.413040      1.296750     -0.060098
C      5.61067     10.35284      6.59456        -0.244038     -0.038825     -1.376616
C     15.36773     10.62556      6.59456         0.359753     -0.063337     -1.195232
C      5.61067     10.62556     14.38384        -0.448669     -0.008823      0.961813
C     15.36773     10.35284     14.38384         0.114287     -0.060087      1.534145
C     10.35284      6.59456      5.61067        -0.048450     -1.241448     -0.605352
C     10.62556      6.59456     15.36773        -0.035335     -0.896611      0.734770
C     10.62556     14.38384      5.61067        -0.032307      0.956802     -0.700748
C     10.35284     14.38384     15.36773        -0.028924      0.412211      0.333873
C      6.59456      5.61067     10.35284        -0.632649     -1.172868      0.140493
C      6.59456     15.36773     10.62556        -0.704770      0.479582      0.038292
C     14.38384      5.61067     10.62556         0.322067     -0.668499     -0.209670
C     14.38384     15.36773     10.35284         0.243407      0.510408     -0.025539
C     10.40319      3.19606      7.29314        -0.025519      0.309627     -0.971009
C     10.35913      4.25547      6.23373        -0.034775     -0.484358      0.154747
C      0.08601      7.29314      7.29314        -0.046391     -0.828518     -0.314695
C      0.13007      6.23373      6.23373         0.006575      0.391368      0.582688
C      0.08601      3.19606      3.19606        -0.007425      0.724231      0.452770
C      0.13007      4.25547      4.25547         0.015129     -0.557303     -0.375582
C     10.40319      7.29314      3.19606        -0.041110     -0.572894      0.231250
C     10.35913      6.23373      4.25547         0.018168      0.262177     -0.627378
C      7.29314     10.40319      3.19606        -0.447819     -0.001791      0.188786
C      6.23373     10.35913      4.25547         0.241336     -0.040493     -0.299197
C      7.29314      0.08601      7.29314        -0.915661     -0.085465     -0.328789
C      6.23373      0.13007      6.23373         0.599617     -0.217909      0.423837
C      3.19606      0.08601      3.19606         0.864040     -0.040619      0.262115
C      4.25547      0.13007      4.25547        -0.510750     -0.237108     -0.392547
C      3.19606     10.40319      7.29314         0.359839      0.006229     -0.174988
C      4.25547     10.35913      6.23373        -0.252585     -0.028203      0.310423
C      3.19606      7.29314     10.40319         0.308141     -0.451453      0.012636
C      4.25547      6.23373     10.35913        -0.876736      0.083001      0.086074
C      7.29314      7.29314      0.08601        -0.421780     -0.364617     -0.024409
C      6.23373      6.23373      0.13007         0.708433      0.075985      0.022603
C      3.19606      3.19606      0.08601         0.743973      0.360963     -0.021720
C      4.25547      4.25547      0.13007        -0.112040     -0.789572     -0.048447
C      7.29314      3.19606     10.40319        -0.476456      0.475081      0.002239
C      6.23373      4.25547     10.35913         0.361474     -0.770051      0.074396
O     10.43466      3.58206      8.50569         0.100567      0.276322      0.811588
O     10.54374     17.39634      8.50569         0.035491     -0.087812      0.333724
O     10.54374      3.58206     12.47271         0.056902      0.085799     -0.428783
O     10.43466     17.39634     12.47271        -0.034094     -0.116653     -0.370658
O      8.50569     10.43466      3.58206         0.582417     -0.050711      0.201400
O      8.50569     10.54374     17.39634         0.818493     -0.044764     -0.214513
O     12.47271     10.54374      3.58206        -0.796583      0.152456      0.256780
O     12.47271     10.43466     17.39634        -0.477260      0.004930     -0.187925
O      3.58206      8.50569     10.43466         0.189533      0.607113     -0.029125
O     17.39634      8.50569     10.54374        -0.153845      0.535405      0.035871
O      3.58206     12.47271     10.54374         0.091963     -0.448395      0.041595
O     17.39634     12.47271     10.43466        -0.154481     -0.575592     -0.032077
O      3.58206     10.43466      8.50569         0.158706     -0.019643      0.344842
O     17.39634     10.54374      8.50569        -0.020822      0.085970      0.313033
O      3.58206     10.54374     12.47271         0.057187      0.043784     -0.299521
O     17.39634     10.43466     12.47271        -0.114476     -0.028970     -0.313332
O     10.43466      8.50569      3.58206        -0.057727      0.636468      0.204817
O     10.54374      8.50569     17.39634        -0.071526      0.747869     -0.189411
O     10.54374     12.47271      3.58206         0.118680     -0.701226      0.172375
O     10.43466     12.47271     17.39634        -0.036244     -0.298793      0.006258
O      8.50569      3.58206     10.43466         0.645413      0.162245     -0.045043
O      8.50569     17.39634     10.54374         0.573796     -0.185780      0.011945
O     12.47271      3.58206     10.54374        -0.725995      0.116483      0.012901
O     12.47271     17.39634     10.43466        -0.543200     -0.133017     -0.034508
O     11.90042     11.90042     19.56718        -0.309185     -0.246023      0.265053
O     19.56718     19.56718     19.56718         0.299472      0.310540      0.234192
O     19.56718     11.90042     11.90042         0.335482     -0.284371     -0.248302
O     11.90042     19.56718     11.90042        -0.306442      0.345450     -0.234940
O      9.45224      1.03696      9.45224        -0.029583      0.114165     -0.092421
O      1.03696      9.45224      9.45224         0.055036     -0.024302     -0.099644
O      1.03696      1.03696      1.03696         0.038291      0.104489      0.096172
O      9.45224      9.45224      1.03696        -0.042190     -0.020633      0.105645
Zr     10.48920      2.52580     10.48920        -0.171860     -0.339057      0.148207
Zr     10.48920     18.45260     10.48920         0.082082      0.080304      0.063657
Zr     10.48920     10.48920      2.52580        -0.110726     -0.118122     -0.360666
Zr     10.48920     10.48920     18.45260         0.114754      0.033582      0.276030
Zr      2.52580     10.48920     10.48920        -0.111871     -0.142448     -0.024388
Zr     18.45260     10.48920     10.48920         0.093222     -0.006264      0.043304
Pd     12.06252      8.45092     10.18882        -0.012477      0.082171     -0.008003
Pd      7.20643      9.62820     10.61337        -0.014338      0.070567     -0.056452
Pd      7.09799     11.91116     11.94009         0.028139     -0.027811     -0.008555
Pd     12.02759     13.57789      7.59993         0.060588      0.052392     -0.016722
Pd     11.58079      8.10882      7.51458        -0.057885     -0.019024      0.041943
Pd      8.76856      7.38966      7.10244        -0.021441      0.086920      0.045483
Pd     11.61962     11.48629      6.01608         0.080682     -0.087140     -0.022670
Pd     13.89485      9.21522      7.68288         0.150072     -0.067342     -0.042042
Pd      9.50948     11.94931      7.67560         0.133218     -0.005403      0.048692
Pd      7.15932      7.16843     12.01838        -0.104298      0.032164      0.030050
Pd      6.92232      7.57431      8.79549        -0.040015     -0.004397      0.038577
Pd      7.38554      9.31621     13.47644        -0.024096      0.005519     -0.085544
Pd     11.37234      5.94403      9.22811         0.006301     -0.161209     -0.007095
Pd      9.76315      9.72168      6.24473         0.083832     -0.014620      0.044811
Pd      9.18145     14.12739      9.10277        -0.005343      0.050217      0.053884
Pd     11.35945      6.50909     11.79616        -0.100132     -0.030374      0.044196
Pd      9.79464      9.31868      9.08834         0.242021     -0.064032      0.078472
Pd      9.27315     11.59306     10.30583         0.042049     -0.078328      0.156758
Pd      9.25386      7.04343     10.28070        -0.033540     -0.042011     -0.174738
Pd      8.96625      7.20341     13.90106        -0.015060      0.082995     -0.131505
Pd      9.43746      9.12430     11.80539         0.056233     -0.067408     -0.024327
Pd     11.90531     10.83991      8.59657        -0.012170     -0.043785     -0.111507
Pd      7.05012     12.28199      9.19588        -0.042397      0.041774     -0.056956
Pd      7.66358      9.95575      7.99876        -0.070876     -0.045511     -0.100664
Pd     13.81232      6.86509      8.73417         0.028017     -0.049455      0.134269
Pd     13.74750      7.67432     12.20064        -0.051685      0.031076      0.016577
Pd      9.40855     11.44076     13.12697        -0.028145      0.012758     -0.023795
Pd     14.07048     12.34221      8.72894        -0.017293      0.021506      0.049864
Pd     13.44835     10.23807     12.72945         0.054739      0.047933      0.064855
Pd     14.13489     10.04813     10.21617        -0.031789      0.033353     -0.062773
Pd     11.48242     10.85736     11.33565        -0.116018     -0.062815     -0.072408
Pd     11.49287     13.27953     10.10981        -0.096071     -0.115946     -0.080733
Pd     13.70857     12.48243     11.41260         0.008710      0.056812     -0.040358
Pd     11.63335     13.27252     12.77465        -0.070182     -0.116221      0.047399
Pd     11.66747     11.23703     14.44049        -0.058776     -0.045092      0.066457
Pd     11.42474      8.70017     13.32854         0.100048     -0.009433      0.042317
Pd      9.60271      9.66880     15.13707         0.038762     -0.029251     -0.110627
Pd      9.19248     13.77149     11.77736        -0.048876      0.032224     -0.020611
