152
# total energy = -1109.97964604 eVH     10.35389      5.87395      7.64558        -0.385193     -0.486663      1.222649
H     10.62451     15.10445      7.64558         0.383805      0.074728      0.919617
H     10.62451      5.87395     13.33282        -0.145651     -1.171987     -1.674169
H     10.35389     15.10445     13.33282        -0.616638      0.452154     -0.486972
H      7.64558     10.35389      5.87395         0.482528     -0.541900     -0.001101
H      7.64558     10.62451     15.10445         0.331397     -0.280880      0.060497
H     13.33282     10.62451      5.87395        -0.369493      0.357285      0.013700
H     13.33282     10.35389     15.10445        -0.460976      0.291751      0.113029
H      5.87395      7.64558     10.35389         0.060832      0.374046      0.033933
H     15.10445      7.64558     10.62451         0.339415      0.370925      0.146930
H      5.87395     13.33282     10.62451        -0.288624     -0.416631      0.408220
H     15.10445     13.33282     10.35389         0.050286     -0.361118     -0.416565
H      5.87395     10.35389      7.64558        -0.114260     -0.299943      1.585160
H     15.10445     10.62451      7.64558         0.120981      0.106288      0.960352
H      5.87395     10.62451     13.33282        -0.097574     -0.303563     -1.117855
H     15.10445     10.35389     13.33282         0.334880      0.542774     -1.217532
H     10.35389      7.64558      5.87395        -0.455795      0.566898     -0.332548
H     10.62451      7.64558     15.10445        -0.045111      0.737951      0.302420
H     10.62451     13.33282      5.87395         0.887473     -1.344477     -0.328556
H     10.35389     13.33282     15.10445         0.289783     -0.510330     -0.000379
H      7.64558      5.87395     10.35389         0.929707      0.108915     -0.130809
H      7.64558     15.10445     10.62451         2.070823      0.801740      0.264335
H     13.33282      5.87395     10.62451        -2.378685     -0.929118      0.095123
H     13.33282     15.10445     10.35389        -0.849934     -0.041952     -0.251500
H     12.45634     12.45634     19.01126         0.269560      0.258124     -0.231441
H     19.01126     19.01126     19.01126        -0.267708     -0.251252     -0.239276
H     19.01126     12.45634     12.45634        -0.278658      0.289152      0.185905
H     12.45634     19.01126     12.45634         0.257611     -0.251478      0.237803
C     10.35284      5.61067      6.59456         0.165701     -0.374398     -1.661077
C     10.62556     15.36773      6.59456         0.148928      0.626647     -0.842478
C     10.62556      5.61067     14.38384         0.048374     -0.244026      2.106087
C     10.35284     15.36773     14.38384         0.160216      0.186154      1.847597
C      6.59456     10.35284      5.61067        -1.177296     -0.182814     -0.964729
C      6.59456     10.62556     15.36773        -0.607712     -0.138322      0.661589
C     14.38384     10.62556      5.61067         0.688039     -0.131001     -0.757981
C     14.38384     10.35284     15.36773         1.111110      0.139553      0.908413
C      5.61067      6.59456     10.35284        -0.880670     -0.681022     -0.133215
C     15.36773      6.59456     10.62556         1.906526      0.000451     -0.022655
C      5.61067     14.38384     10.62556        -1.519698      0.176943      0.007021
C     15.36773     14.38384     10.35284         0.480288      0.197309      0.010479
C      5.61067     10.35284      6.59456        -0.345496      0.295218     -1.736218
C     15.36773     10.62556      6.59456         0.301009      0.019569     -0.906216
C      5.61067     10.62556     14.38384        -0.380600      0.250222      1.505811
C     15.36773     10.35284     14.38384         0.152337     -0.345194      1.697247
C     10.35284      6.59456      5.61067        -0.249076     -1.306232     -1.010638
C     10.62556      6.59456     15.36773        -0.054395     -1.095959      1.197205
C     10.62556     14.38384      5.61067        -0.456298      2.058601     -0.702353
C     10.35284     14.38384     15.36773        -0.255710      1.597246      0.371179
C      6.59456      5.61067     10.35284        -1.027625     -0.321211      0.066916
C      6.59456     15.36773     10.62556        -1.533137      0.285947     -0.351449
C     14.38384      5.61067     10.62556         1.320576     -0.402715     -0.115749
C     14.38384     15.36773     10.35284         0.358022      0.240797      0.055825
C     10.40319      3.19606      7.29314         0.024127      0.298832     -0.124437
C     10.35913      4.25547      6.23373         0.110827     -0.408525      0.223818
C      0.08601      7.29314      7.29314        -0.053208     -0.360873     -0.438825
C      0.13007      6.23373      6.23373        -0.152659      0.838927      0.049666
C      0.08601      3.19606      3.19606        -0.121203      1.531525      0.169247
C      0.13007      4.25547      4.25547        -0.151041     -0.407872     -1.367379
C     10.40319      7.29314      3.19606         0.036704     -0.459892      0.090172
C     10.35913      6.23373      4.25547         0.223295      0.173963     -0.387496
C      7.29314     10.40319      3.19606        -1.731068      0.023991      0.243014
C      6.23373     10.35913      4.25547         0.515709      0.042780     -0.519466
C      7.29314      0.08601      7.29314        -0.372796      0.012549     -0.268597
C      6.23373      0.13007      6.23373         0.365184      0.017338      0.351691
C      3.19606      0.08601      3.19606         0.625088      0.011499      0.307504
C      4.25547      0.13007      4.25547        -0.416096      0.014619     -0.404088
C      3.19606     10.40319      7.29314         0.384349      0.048666     -0.401938
C      4.25547     10.35913      6.23373        -0.667079      0.088387      0.422596
C      3.19606      7.29314     10.40319         0.364022     -0.328858     -0.002649
C      4.25547      6.23373     10.35913         0.009014      0.666279      0.107710
C      7.29314      7.29314      0.08601        -0.683128     -0.451107     -0.028347
C      6.23373      6.23373      0.13007         0.279526      1.291079     -0.006389
C      3.19606      3.19606      0.08601         0.777969      0.429458     -0.009676
C      4.25547      4.25547      0.13007        -0.474010     -1.422158     -0.085020
C      7.29314      3.19606     10.40319        -0.356814      0.310002      0.004302
C      6.23373      4.25547     10.35913         0.577614     -0.186243      0.237988
O     10.43466      3.58206      8.50569        -0.045313      0.192486      0.285260
O     10.54374     17.39634      8.50569         0.043674     -0.214682      0.481027
O     10.54374      3.58206     12.47271         0.096192     -0.016823     -0.080627
O     10.43466     17.39634     12.47271        -0.037554     -0.102280     -0.232717
O      8.50569     10.43466      3.58206         0.917199      0.184610      0.398041
O      8.50569     10.54374     17.39634         0.551408      0.072387     -0.210218
O     12.47271     10.54374      3.58206        -0.500759     -0.014015      0.182730
O     12.47271     10.43466     17.39634        -0.522913     -0.069902     -0.188810
O      3.58206      8.50569     10.43466         0.165091      0.510742     -0.044997
O     17.39634      8.50569     10.54374        -0.185973      0.662004      0.045625
O      3.58206     12.47271     10.54374         0.150824     -0.615192      0.027443
O     17.39634     12.47271     10.43466        -0.174793     -0.519446     -0.014261
O      3.58206     10.43466      8.50569         0.218551     -0.082392      0.438527
O     17.39634     10.54374      8.50569        -0.158988      0.031037      0.426980
O      3.58206     10.54374     12.47271         0.148227     -0.000535     -0.387132
O     17.39634     10.43466     12.47271         0.079464     -0.063833     -0.056410
O     10.43466      8.50569      3.58206        -0.001155      0.354334      0.183878
O     10.54374      8.50569     17.39634         0.074448      0.467619     -0.201801
O     10.54374     12.47271      3.58206        -0.224706     -0.913305      0.344189
O     10.43466     12.47271     17.39634        -0.078188     -0.434478     -0.236613
O      8.50569      3.58206     10.43466         0.508435      0.191046     -0.018304
O      8.50569     17.39634     10.54374         0.613369     -0.197241      0.036771
O     12.47271      3.58206     10.54374        -0.709478      0.277429      0.042761
O     12.47271     17.39634     10.43466        -0.479479     -0.184218     -0.039421
O     11.90042     11.90042     19.56718        -0.332514     -0.305290      0.262455
O     19.56718     19.56718     19.56718         0.330888      0.305250      0.286608
O     19.56718     11.90042     11.90042         0.276005     -0.294174     -0.131949
O     11.90042     19.56718     11.90042        -0.318039      0.296488     -0.238450
O      9.45224      1.03696      9.45224        -0.050434      0.070672     -0.039373
O      1.03696      9.45224      9.45224         0.039734     -0.067839     -0.068916
O      1.03696      1.03696      1.03696         0.040630      0.116814      0.124858
O      9.45224      9.45224      1.03696        -0.112292     -0.065817      0.138882
Zr     10.48920      2.52580     10.48920         0.092546     -0.149258     -0.161569
Zr     10.48920     18.45260     10.48920        -0.045352      0.166380     -0.032093
Zr     10.48920     10.48920      2.52580         0.423446     -0.280553     -0.247028
Zr     10.48920     10.48920     18.45260        -0.027043     -0.062811      0.194815
Zr      2.52580     10.48920     10.48920        -0.060916      0.124951     -0.029185
Zr     18.45260     10.48920     10.48920         0.117342     -0.110498     -0.303546
Ir     12.01754     12.42234     10.44470        -0.024856      0.061292      0.083144
Ir     10.80425      7.35653     10.42179         0.110468      0.013892      0.000812
Ir      8.46816      7.47257     11.67442         0.091274      0.001912     -0.027478
Ir      7.35932     11.77181      7.69904         0.075696     -0.009003     -0.042147
Ir     11.48446     12.07115      7.14350         0.028561      0.013925     -0.020249
Ir     13.40943      8.83907      7.57958         0.071723      0.060661      0.011945
Ir     12.47821     13.89563      8.42929         0.043065      0.018459     -0.011276
Ir      9.57692     11.30770      5.59202         0.008084      0.015417      0.031285
Ir      9.05442     13.49894      7.08211         0.013378      0.028548      0.015060
Ir      9.09659      9.70310      7.60006         0.073271     -0.027212     -0.004347
Ir     12.99690      7.10899     11.90974         0.048307     -0.072706      0.024029
Ir     13.14837      6.92648      9.14561         0.129584      0.042706     -0.051773
Ir     10.72659      7.58445     12.93856         0.078843      0.012880     -0.020985
Ir     13.51446     11.44003      8.70217         0.076996     -0.001635     -0.009582
Ir     11.30569      9.66732      6.26973         0.066505     -0.013543      0.009545
Ir      6.86464      9.38755      9.05551         0.094335     -0.051797     -0.030604
Ir     14.10505     11.37558     11.48525        -0.030506     -0.012618      0.079146
Ir     11.44202      9.88933      8.95522         0.105507     -0.088943     -0.089232
Ir      9.18039      9.58293     10.29132         0.006290     -0.037992     -0.021409
Ir     13.63396      9.28191     10.16463         0.033165     -0.040179     -0.035642
Ir     13.62892      9.24714     12.84745         0.020934     -0.099932      0.036658
Ir     11.44317      9.67326     11.59311         0.069486      0.021429     -0.002378
Ir      9.79278     11.82200      9.01970        -0.021658      0.066366     -0.035528
Ir      8.63835      7.50329      8.92732         0.101082      0.001488      0.005288
Ir     11.04954      7.63203      7.91437         0.130398      0.055079     -0.017453
Ir      9.04018      9.56696     13.04612         0.046570      0.007914     -0.014459
Ir      7.56061     14.04409      9.00399         0.006130     -0.019955     -0.012728
Ir     10.95146     14.02654     12.02626         0.054614     -0.010524     -0.092672
Ir     10.14563     14.22081      9.57566         0.010616     -0.015955     -0.017362
Ir      9.73114     11.71379     11.73263         0.025548      0.050654     -0.005326
Ir      7.49214     11.74391     10.27352         0.029093     -0.024294     -0.040890
Ir      8.42166     13.86381     11.65347         0.010110     -0.015325     -0.018962
Ir      7.49417     11.80047     12.93225         0.011337     -0.028670     -0.044092
Ir      9.79327     11.66855     14.32374        -0.028103      0.018269      0.002260
Ir     13.51279     13.79948     12.15118         0.012129     -0.052807     -0.009556
Ir     12.06641     11.89711     13.03997        -0.034290      0.100979     -0.026161
Ir     11.44085      9.74759     14.24235         0.036304      0.028188     -0.001985
Ir      6.90254      9.60811     11.59759         0.075901     -0.024210     -0.047309
