152
# total energy = -1061.44775510 eVH     10.35389      5.87395      7.64558        -0.206471      0.126786      1.034107
H     10.62451     15.10445      7.64558         0.445085     -0.116655      0.779860
H     10.62451      5.87395     13.33282        -0.091663      0.099499     -0.455034
H     10.35389     15.10445     13.33282         0.090633     -0.188321     -0.401881
H      7.64558     10.35389      5.87395         0.884647      0.199313      0.221429
H      7.64558     10.62451     15.10445         0.210657     -0.022581     -0.072263
H     13.33282     10.62451      5.87395        -0.598827     -0.051593      0.166182
H     13.33282     10.35389     15.10445        -0.323410     -0.056658     -0.075515
H      5.87395      7.64558     10.35389         0.127560      0.361909     -0.077955
H     15.10445      7.64558     10.62451        -0.137822      0.446247      0.180098
H      5.87395     13.33282     10.62451         0.106538     -0.636085      0.113799
H     15.10445     13.33282     10.35389        -0.229789     -0.437009      0.091928
H      5.87395     10.35389      7.64558         0.157744      0.278850      0.384864
H     15.10445     10.62451      7.64558        -0.137790     -0.368999      0.741360
H      5.87395     10.62451     13.33282         0.036439      0.153893     -0.704429
H     15.10445     10.35389     13.33282         0.078419     -0.249778     -0.737242
H     10.35389      7.64558      5.87395        -0.157921      0.446323      0.215944
H     10.62451      7.64558     15.10445         0.369678      0.612856     -0.119963
H     10.62451     13.33282      5.87395         0.085666     -0.557677      0.102853
H     10.35389     13.33282     15.10445         0.259810     -0.717841     -0.087578
H      7.64558      5.87395     10.35389         0.483207      0.145034     -0.153017
H      7.64558     15.10445     10.62451         0.397388     -0.147114      0.431661
H     13.33282      5.87395     10.62451        -0.389156      0.160303     -0.075436
H     13.33282     15.10445     10.35389        -0.580708     -0.293456      0.118666
H     12.45634     12.45634     19.01126         0.230598      0.265616     -0.248932
H     19.01126     19.01126     19.01126        -0.261656     -0.259129     -0.230410
H     19.01126     12.45634     12.45634        -0.234281      0.276060      0.235520
H     12.45634     19.01126     12.45634         0.276291     -0.210551      0.255839
C     10.35284      5.61067      6.59456         0.278280     -0.306388     -0.790425
C     10.62556     15.36773      6.59456        -0.189960      0.638597     -0.290160
C     10.62556      5.61067     14.38384         0.253871     -0.237018      0.487392
C     10.35284     15.36773     14.38384        -0.112110      0.274248      0.271922
C      6.59456     10.35284      5.61067        -0.833900     -0.099054     -0.240120
C      6.59456     10.62556     15.36773        -0.512736      0.046013      0.343693
C     14.38384     10.62556      5.61067         0.790785     -0.033035     -0.636079
C     14.38384     10.35284     15.36773         0.266133     -0.073622      0.350534
C      5.61067      6.59456     10.35284        -0.403429     -0.356608      0.079437
C     15.36773      6.59456     10.62556         0.313351     -0.482314     -0.069601
C      5.61067     14.38384     10.62556        -0.150238      0.500192     -0.400030
C     15.36773     14.38384     10.35284         0.413931      0.838258     -0.096916
C      5.61067     10.35284      6.59456        -0.315321     -0.172220     -0.108723
C     15.36773     10.62556      6.59456         0.212986      0.284237     -0.581166
C      5.61067     10.62556     14.38384        -0.339933     -0.042297      1.207198
C     15.36773     10.35284     14.38384         0.289936     -0.062105      0.995302
C     10.35284      6.59456      5.61067         0.080383     -0.245749     -0.509276
C     10.62556      6.59456     15.36773         0.013373     -0.782973      0.120483
C     10.62556     14.38384      5.61067        -0.384100      0.178938     -0.923230
C     10.35284     14.38384     15.36773        -0.259857      0.839996      0.269412
C      6.59456      5.61067     10.35284        -0.351856     -0.289544      0.256198
C      6.59456     15.36773     10.62556        -0.273839      0.519995     -0.058262
C     14.38384      5.61067     10.62556         0.473842     -0.373919      0.059605
C     14.38384     15.36773     10.35284         0.973668      0.269308     -0.064324
C     10.40319      3.19606      7.29314         0.008370      0.548983     -0.317367
C     10.35913      4.25547      6.23373        -0.013313     -0.530301      0.413120
C      0.08601      7.29314      7.29314        -0.014792     -0.845253     -0.564174
C      0.13007      6.23373      6.23373        -0.189782      0.877380      0.151129
C      0.08601      3.19606      3.19606        -0.010286      0.413284      0.387234
C      0.13007      4.25547      4.25547         0.065930     -0.227892     -0.571456
C     10.40319      7.29314      3.19606        -0.047256     -1.039047      0.778209
C     10.35913      6.23373      4.25547         0.016681      0.340178     -0.229701
C      7.29314     10.40319      3.19606        -1.316243     -0.084627      0.323301
C      6.23373     10.35913      4.25547         0.264728      0.019198     -0.700607
C      7.29314      0.08601      7.29314        -0.827966     -0.002080     -0.410630
C      6.23373      0.13007      6.23373         0.328658      0.053694      0.126410
C      3.19606      0.08601      3.19606         0.323747      0.000197      0.430107
C      4.25547      0.13007      4.25547        -0.284192     -0.032890     -0.178539
C      3.19606     10.40319      7.29314         0.494045     -0.040929     -1.033444
C      4.25547     10.35913      6.23373        -0.321062     -0.074688      0.096990
C      3.19606      7.29314     10.40319         1.086201     -0.443862      0.010946
C      4.25547      6.23373     10.35913        -0.194788      0.165916     -0.000438
C      7.29314      7.29314      0.08601        -0.501703     -0.281317     -0.007297
C      6.23373      6.23373      0.13007         0.172341      0.171553     -0.154564
C      3.19606      3.19606      0.08601         0.355823      0.879275     -0.008579
C      4.25547      4.25547      0.13007        -0.577702     -0.184623      0.039155
C      7.29314      3.19606     10.40319        -0.197334      0.497466      0.026266
C      6.23373      4.25547     10.35913        -0.011151     -0.368175      0.043557
O     10.43466      3.58206      8.50569        -0.023201      0.133662      0.390839
O     10.54374     17.39634      8.50569         0.041412      0.053238      0.365490
O     10.54374      3.58206     12.47271         0.041136      0.194349     -0.574374
O     10.43466     17.39634     12.47271         0.028711     -0.015028     -0.464293
O      8.50569     10.43466      3.58206         0.765973     -0.059754     -0.023766
O      8.50569     10.54374     17.39634         0.851714      0.022405     -0.161727
O     12.47271     10.54374      3.58206        -0.348682      0.037109      0.082469
O     12.47271     10.43466     17.39634        -0.377336     -0.036676      0.039763
O      3.58206      8.50569     10.43466        -0.104444      0.260163     -0.078543
O     17.39634      8.50569     10.54374        -0.106535      0.446583      0.043019
O      3.58206     12.47271     10.54374         0.150148     -0.821295     -0.022257
O     17.39634     12.47271     10.43466        -0.239266     -0.634124     -0.015487
O      3.58206     10.43466      8.50569         0.127864     -0.031777      0.794356
O     17.39634     10.54374      8.50569         0.000784      0.035678      0.340912
O      3.58206     10.54374     12.47271         0.067048      0.017843     -0.458414
O     17.39634     10.43466     12.47271         0.053445      0.012661     -0.239874
O     10.43466      8.50569      3.58206        -0.055640      0.563424     -0.070905
O     10.54374      8.50569     17.39634         0.028749      0.866021     -0.204651
O     10.54374     12.47271      3.58206         0.069802     -0.369707      0.075339
O     10.43466     12.47271     17.39634        -0.055378     -0.642700     -0.198548
O      8.50569      3.58206     10.43466         0.349373      0.082543     -0.052579
O      8.50569     17.39634     10.54374         0.559596     -0.166000     -0.016402
O     12.47271      3.58206     10.54374        -0.366317      0.050214      0.036043
O     12.47271     17.39634     10.43466        -0.836294     -0.144617      0.071273
O     11.90042     11.90042     19.56718        -0.243569     -0.283164      0.237480
O     19.56718     19.56718     19.56718         0.300354      0.293396      0.250177
O     19.56718     11.90042     11.90042         0.228828     -0.305357     -0.276249
O     11.90042     19.56718     11.90042        -0.274320      0.180083     -0.275966
O      9.45224      1.03696      9.45224        -0.107571      0.086681     -0.085883
O      1.03696      9.45224      9.45224         0.125162     -0.147844     -0.174338
O      1.03696      1.03696      1.03696         0.139594      0.208428     -0.002983
O      9.45224      9.45224      1.03696        -0.212581     -0.170600      0.030503
Zr     10.48920      2.52580     10.48920        -0.005283     -0.232298      0.148629
Zr     10.48920     18.45260     10.48920        -0.305027      0.307473     -0.152276
Zr     10.48920     10.48920      2.52580         0.361293      0.394183     -0.232267
Zr     10.48920     10.48920     18.45260        -0.001770      0.020555      0.469233
Zr      2.52580     10.48920     10.48920        -0.557102      0.020643      0.342542
Zr     18.45260     10.48920     10.48920         0.274344     -0.144571      0.002746
Pd      9.21663     14.65393      9.21922        -0.009011      0.011683     -0.003652
Pd      8.47694     13.21439     13.81857        -0.006714     -0.002084      0.011655
Pd     12.15080     14.12222      8.65345         0.004691      0.006897      0.015383
Pd     12.25011     12.75602     10.89775         0.001527      0.011145     -0.012275
Pd     11.77648      7.08144     11.88491         0.003659      0.000074     -0.008763
Pd     11.17624     15.31541     10.92767         0.006200     -0.002669      0.017689
Pd      9.61627     13.16695     11.40499        -0.010450     -0.014958      0.001667
Pd     14.02759     12.39942      7.95956        -0.002906     -0.012005      0.011794
Pd     11.57512     11.76857      6.74520        -0.002520      0.019609      0.004538
Pd      7.42735      8.52885      7.18841         0.001482      0.013227      0.004254
Pd      8.61663     12.09516      6.91069        -0.018906      0.006550      0.000613
Pd      9.71329      9.90459      7.99828        -0.002008      0.004735     -0.010821
Pd      8.47700     14.74577      6.57883        -0.000305      0.001118     -0.001840
Pd     12.02109      9.06120      6.83640        -0.002207     -0.000079     -0.005775
Pd      9.90622     10.04507      5.39978         0.000541      0.009814      0.012608
Pd      6.90150      9.22555     12.16828        -0.005888     -0.006693     -0.000939
Pd     12.39402      6.53093      7.66441         0.007801      0.006318      0.001713
Pd      5.56987     10.69386     10.10511         0.003471     -0.002704      0.009262
Pd      7.56061      6.67097     12.70030         0.010165     -0.003888     -0.008285
Ir     11.28383      9.53873     12.83575         0.009929      0.009274      0.000450
Ir     13.07864      9.23627     11.07224        -0.031170     -0.010708      0.011310
Ir      9.15282      8.42286     13.75294         0.001490      0.000153     -0.006007
Ir     10.27832     10.37140     15.06477        -0.006555     -0.003346      0.001784
Ir      7.10767     11.91370     11.84259         0.008568     -0.004813      0.005860
Ir     14.40417     11.19993     10.31397         0.010284     -0.000299     -0.004443
Ir     12.27348     10.62619      9.05051         0.007595      0.000468      0.000769
Ir      8.92901     10.79223     12.88995        -0.013408      0.008690     -0.004941
Ir     10.02284     10.28987     10.61191        -0.012568      0.004475      0.002662
Ir     13.30369     11.19740     12.60688        -0.007102     -0.016327      0.008161
Ir     11.09856     12.04158     13.32532        -0.000260     -0.005699     -0.000205
Ir      7.95731     11.73383      9.50864        -0.018295      0.022379      0.007703
Ir     11.27081      8.16147      9.44041        -0.012996     -0.013278      0.004533
Ir      6.98271     13.59849      8.37510         0.000105     -0.009380      0.017955
Ir      9.05307      7.28930      8.79213        -0.001753      0.005317      0.003140
Ir      7.73374      9.21694      9.70372        -0.004158     -0.013714      0.003143
Ir     10.36226     12.34120      8.97955        -0.009295     -0.006685      0.007753
Ir      9.31736      7.89891     11.24777        -0.005406     -0.000936      0.010379
Ir     13.73521      8.47050      8.78503         0.028275      0.002898     -0.004810
