152
# total energy = -1003.16222723 eVH     10.35389      5.87395      7.64558        -0.078730      0.174868      0.861552
H     10.62451     15.10445      7.64558        -0.262912     -0.113312      1.104319
H     10.62451      5.87395     13.33282         0.005959     -0.010227     -0.959666
H     10.35389     15.10445     13.33282        -0.059307     -0.186324     -0.821375
H      7.64558     10.35389      5.87395         0.708575      0.187524     -0.131937
H      7.64558     10.62451     15.10445         0.846916      0.513034      0.013478
H     13.33282     10.62451      5.87395        -0.684797      0.016873      0.203485
H     13.33282     10.35389     15.10445        -0.658708     -0.182614      0.024778
H      5.87395      7.64558     10.35389        -0.132362      1.889107      0.316070
H     15.10445      7.64558     10.62451        -0.038981      1.087873     -0.074057
H      5.87395     13.33282     10.62451         0.197473     -0.835811      0.069853
H     15.10445     13.33282     10.35389         0.035598     -1.105824     -0.201541
H      5.87395     10.35389      7.64558        -0.498200      0.228971      1.159608
H     15.10445     10.62451      7.64558         0.116190      0.709886      1.578380
H      5.87395     10.62451     13.33282        -0.054323      0.447075     -1.195408
H     15.10445     10.35389     13.33282         0.895311      0.092351     -1.065968
H     10.35389      7.64558      5.87395         0.383362      1.398420     -0.065020
H     10.62451      7.64558     15.10445         0.528770      1.054942     -0.015224
H     10.62451     13.33282      5.87395        -0.387697     -0.800391      0.063697
H     10.35389     13.33282     15.10445        -0.106446     -0.435690     -0.151614
H      7.64558      5.87395     10.35389         1.065190     -0.160142     -0.189076
H      7.64558     15.10445     10.62451         0.596236     -0.213085     -0.001666
H     13.33282      5.87395     10.62451        -0.938371      0.053189      0.320629
H     13.33282     15.10445     10.35389        -0.379076     -0.104834     -0.036370
H     12.45634     12.45634     19.01126         0.265565      0.234628     -0.246460
H     19.01126     19.01126     19.01126        -0.264532     -0.258723     -0.228072
H     19.01126     12.45634     12.45634        -0.263644      0.262210      0.233158
H     12.45634     19.01126     12.45634         0.261001     -0.269102      0.226900
C     10.35284      5.61067      6.59456        -0.148883     -0.969921     -0.913854
C     10.62556     15.36773      6.59456         0.129787      0.440934     -0.827081
C     10.62556      5.61067     14.38384        -0.145823     -0.720378      1.118932
C     10.35284     15.36773     14.38384         0.063237      0.289575      0.866628
C      6.59456     10.35284      5.61067        -1.277931      0.173345     -0.845736
C      6.59456     10.62556     15.36773        -0.956304      0.192288      0.699197
C     14.38384     10.62556      5.61067         1.038534      0.135281     -0.868654
C     14.38384     10.35284     15.36773         1.306612      0.065835      0.739484
C      5.61067      6.59456     10.35284        -0.791865     -1.002998     -0.013177
C     15.36773      6.59456     10.62556         0.532506     -0.179958     -0.042876
C      5.61067     14.38384     10.62556        -0.403012      0.938084     -0.028455
C     15.36773     14.38384     10.35284         0.411681      1.330281     -0.037276
C      5.61067     10.35284      6.59456        -0.267153     -0.040106     -1.426088
C     15.36773     10.62556      6.59456         0.362336     -0.049238     -1.216642
C      5.61067     10.62556     14.38384        -0.404041     -0.014002      0.941872
C     15.36773     10.35284     14.38384         0.114329     -0.059663      1.597454
C     10.35284      6.59456      5.61067        -0.045602     -1.246819     -0.596376
C     10.62556      6.59456     15.36773        -0.037370     -0.871309      0.693961
C     10.62556     14.38384      5.61067        -0.019395      0.865870     -0.641037
C     10.35284     14.38384     15.36773        -0.029015      0.409487      0.345629
C      6.59456      5.61067     10.35284        -0.554747     -1.170846      0.135284
C      6.59456     15.36773     10.62556        -0.690976      0.481458      0.038654
C     14.38384      5.61067     10.62556         0.347530     -0.685786     -0.206528
C     14.38384     15.36773     10.35284         0.289890      0.520230     -0.035113
C     10.40319      3.19606      7.29314        -0.023398      0.313859     -0.956299
C     10.35913      4.25547      6.23373        -0.032977     -0.481232      0.160402
C      0.08601      7.29314      7.29314        -0.040161     -0.786550     -0.325104
C      0.13007      6.23373      6.23373        -0.007551      0.387501      0.553741
C      0.08601      3.19606      3.19606        -0.012680      0.632315      0.468487
C      0.13007      4.25547      4.25547         0.006356     -0.541006     -0.376865
C     10.40319      7.29314      3.19606        -0.042396     -0.616605      0.230949
C     10.35913      6.23373      4.25547         0.021704      0.267677     -0.629457
C      7.29314     10.40319      3.19606        -0.512309     -0.004994      0.185979
C      6.23373     10.35913      4.25547         0.265114     -0.041598     -0.322065
C      7.29314      0.08601      7.29314        -0.869461     -0.080853     -0.327698
C      6.23373      0.13007      6.23373         0.605505     -0.208825      0.393776
C      3.19606      0.08601      3.19606         0.839567     -0.037432      0.252734
C      4.25547      0.13007      4.25547        -0.499229     -0.245576     -0.387205
C      3.19606     10.40319      7.29314         0.370180      0.005275     -0.170552
C      4.25547     10.35913      6.23373        -0.258959     -0.031428      0.326212
C      3.19606      7.29314     10.40319         0.309218     -0.449993      0.015476
C      4.25547      6.23373     10.35913        -0.884036      0.099830      0.078747
C      7.29314      7.29314      0.08601        -0.423839     -0.370803     -0.023710
C      6.23373      6.23373      0.13007         0.712516      0.073731      0.022815
C      3.19606      3.19606      0.08601         0.743887      0.356552     -0.023214
C      4.25547      4.25547      0.13007        -0.124027     -0.777741     -0.050123
C      7.29314      3.19606     10.40319        -0.470822      0.485437      0.007071
C      6.23373      4.25547     10.35913         0.363675     -0.766495      0.075494
O     10.43466      3.58206      8.50569         0.096198      0.271625      0.799757
O     10.54374     17.39634      8.50569         0.029321     -0.098269      0.349913
O     10.54374      3.58206     12.47271         0.065739      0.108971     -0.459500
O     10.43466     17.39634     12.47271        -0.034025     -0.108315     -0.356649
O      8.50569     10.43466      3.58206         0.615369     -0.061519      0.213652
O      8.50569     10.54374     17.39634         0.798973     -0.040854     -0.220530
O     12.47271     10.54374      3.58206        -0.782824      0.142192      0.268378
O     12.47271     10.43466     17.39634        -0.485119      0.007966     -0.194296
O      3.58206      8.50569     10.43466         0.188880      0.605447     -0.030397
O     17.39634      8.50569     10.54374        -0.153363      0.538176      0.036230
O      3.58206     12.47271     10.54374         0.090737     -0.445264      0.042671
O     17.39634     12.47271     10.43466        -0.155201     -0.582789     -0.032248
O      3.58206     10.43466      8.50569         0.156670     -0.020821      0.338101
O     17.39634     10.54374      8.50569        -0.031805      0.083690      0.320584
O      3.58206     10.54374     12.47271         0.058885      0.043346     -0.294649
O     17.39634     10.43466     12.47271        -0.100383     -0.027297     -0.291756
O     10.43466      8.50569      3.58206        -0.066881      0.654394      0.207188
O     10.54374      8.50569     17.39634        -0.062701      0.728156     -0.193015
O     10.54374     12.47271      3.58206         0.094609     -0.648815      0.153415
O     10.43466     12.47271     17.39634        -0.033925     -0.304351      0.000850
O      8.50569      3.58206     10.43466         0.641322      0.160407     -0.045312
O      8.50569     17.39634     10.54374         0.577093     -0.182667      0.015762
O     12.47271      3.58206     10.54374        -0.729072      0.118222      0.012888
O     12.47271     17.39634     10.43466        -0.544368     -0.132973     -0.033827
O     11.90042     11.90042     19.56718        -0.308951     -0.246868      0.263385
O     19.56718     19.56718     19.56718         0.299786      0.310819      0.238940
O     19.56718     11.90042     11.90042         0.329117     -0.292421     -0.248596
O     11.90042     19.56718     11.90042        -0.309257      0.341448     -0.231417
O      9.45224      1.03696      9.45224        -0.030232      0.109066     -0.093644
O      1.03696      9.45224      9.45224         0.052304     -0.024346     -0.099225
O      1.03696      1.03696      1.03696         0.038155      0.098089      0.096504
O      9.45224      9.45224      1.03696        -0.044949     -0.023365      0.109555
Zr     10.48920      2.52580     10.48920        -0.170885     -0.330210      0.157644
Zr     10.48920     18.45260     10.48920         0.082790      0.082643      0.045848
Zr     10.48920     10.48920      2.52580        -0.076698     -0.059296     -0.365227
Zr     10.48920     10.48920     18.45260         0.098214      0.017740      0.277343
Zr      2.52580     10.48920     10.48920        -0.107912     -0.136967     -0.022639
Zr     18.45260     10.48920     10.48920         0.097159     -0.001686      0.026452
Pd     12.03016      8.47723     10.19879         0.053293     -0.149941      0.102841
Pd      7.21934      9.70257     10.59148         0.052657     -0.047180     -0.052979
Pd      7.11702     11.97071     11.91163         0.062451      0.018143     -0.013063
Pd     12.02753     13.52189      7.58348         0.020937      0.100994      0.037007
Pd     11.55554      8.12593      7.50592         0.049669     -0.013368      0.029045
Pd      8.76645      7.38083      7.12238         0.069343      0.009715     -0.060795
Pd     11.63129     11.37933      6.07592         0.057328     -0.032636     -0.048945
Pd     13.87314      9.23305      7.67269         0.060485     -0.092734      0.002095
Pd      9.51623     11.93806      7.63744         0.037329     -0.057835      0.090110
Pd      7.12107      7.21150     11.99949         0.025436      0.059462      0.048579
Pd      6.96039      7.58821      8.83471        -0.102093      0.016156      0.087814
Pd      7.44348      9.36980     13.41627        -0.123345      0.084999     -0.050463
Pd     11.35859      5.95084      9.23652         0.056579     -0.096689     -0.009351
Pd      9.69219      9.69894      6.17234         0.102399      0.013549      0.057344
Pd      9.23654     14.14122      9.06881        -0.021184      0.003785      0.064475
Pd     11.38604      6.49706     11.82054        -0.003567     -0.047373     -0.102316
Pd      9.80166      9.33154      9.05706        -0.128971      0.032286      0.004086
Pd      9.32162     11.63685     10.28894        -0.122591     -0.040237      0.023652
Pd      9.28039      7.07180     10.32769        -0.086271     -0.012603     -0.126467
Pd      8.99708      7.23487     13.83028        -0.024282      0.045614     -0.155698
Pd      9.48349      9.20524     11.76327        -0.088026     -0.198694     -0.006312
Pd     11.89887     10.86574      8.67996         0.035727      0.011600     -0.170972
Pd      7.08631     12.30572      9.14894         0.028640      0.045128      0.040086
Pd      7.64825      9.95777      7.97096         0.098439     -0.079466      0.034502
Pd     13.79771      6.88336      8.75577        -0.021763      0.041825      0.089709
Pd     13.77389      7.69849     12.19604        -0.078861      0.029729     -0.040238
Pd      9.42124     11.50257     13.11019         0.041346      0.007031      0.086249
Pd     14.10061     12.32147      8.72397        -0.023131      0.010794      0.038966
Pd     13.46205     10.25576     12.74896         0.011636      0.057255      0.002372
Pd     14.13166     10.02719     10.22476         0.010404      0.052724     -0.038576
Pd     11.50105     10.89965     11.36171         0.051685      0.029591      0.040295
Pd     11.53443     13.33133     10.13181        -0.103593     -0.105734     -0.089704
Pd     13.72605     12.48746     11.40927        -0.004157      0.034013      0.002998
Pd     11.67696     13.30572     12.81565        -0.122671     -0.064644     -0.054119
Pd     11.67944     11.25249     14.45566        -0.100229     -0.056552     -0.003123
Pd     11.44595      8.69853     13.30340         0.035743      0.077571      0.071744
Pd      9.61504      9.68746     15.09478         0.018788     -0.041273     -0.076593
Pd      9.22287     13.82472     11.76263         0.033392      0.014128     -0.066634
