152
# total energy = -1024.31233369 eVH     10.35389      5.87395      7.64558         0.469201      0.041489      0.739858
H     10.62451     15.10445      7.64558         0.013317     -0.189423      0.589754
H     10.62451      5.87395     13.33282         0.107008      0.157843     -0.582767
H     10.35389     15.10445     13.33282        -0.426424     -0.049976     -0.774993
H      7.64558     10.35389      5.87395         0.342943      0.011729      0.171839
H      7.64558     10.62451     15.10445         0.890248     -0.348660     -0.015805
H     13.33282     10.62451      5.87395        -0.764197     -0.058122      0.154283
H     13.33282     10.35389     15.10445        -0.872056     -0.392757      0.195182
H      5.87395      7.64558     10.35389         0.207963      0.621199     -0.102579
H     15.10445      7.64558     10.62451        -0.140423      0.397647     -0.041786
H      5.87395     13.33282     10.62451         0.161598     -0.522671     -0.113224
H     15.10445     13.33282     10.35389        -0.080544     -1.178407      0.011648
H      5.87395     10.35389      7.64558         0.133776      0.142436      0.514179
H     15.10445     10.62451      7.64558         0.027002      0.088179      1.029598
H      5.87395     10.62451     13.33282         0.104398     -0.050111     -0.417925
H     15.10445     10.35389     13.33282        -0.122491     -0.163066     -0.557492
H     10.35389      7.64558      5.87395         0.031736      0.974452      0.243582
H     10.62451      7.64558     15.10445         0.010356      0.278026     -0.175188
H     10.62451     13.33282      5.87395        -0.086975     -0.428293      0.324963
H     10.35389     13.33282     15.10445        -0.457046     -0.639055     -0.019349
H      7.64558      5.87395     10.35389         0.480981      0.117503      0.020640
H      7.64558     15.10445     10.62451         0.892284     -0.256317     -0.047076
H     13.33282      5.87395     10.62451        -0.579502      0.135268     -0.076291
H     13.33282     15.10445     10.35389        -0.639140     -0.052539      0.228167
H     12.45634     12.45634     19.01126         0.237871      0.275832     -0.235769
H     19.01126     19.01126     19.01126        -0.252009     -0.246391     -0.242760
H     19.01126     12.45634     12.45634        -0.263017      0.267812      0.220900
H     12.45634     19.01126     12.45634         0.232510     -0.264612      0.241632
C     10.35284      5.61067      6.59456        -0.193146     -0.629362      0.066342
C     10.62556     15.36773      6.59456        -0.024042      0.373040     -0.769193
C     10.62556      5.61067     14.38384        -0.009924     -0.067886      0.706741
C     10.35284     15.36773     14.38384         0.145896      0.730249      0.190586
C      6.59456     10.35284      5.61067        -0.368310     -0.022743     -0.278386
C      6.59456     10.62556     15.36773        -1.022108      0.351446      0.363147
C     14.38384     10.62556      5.61067         0.410143      0.330357     -0.616562
C     14.38384     10.35284     15.36773         0.973433     -0.007091      0.333089
C      5.61067      6.59456     10.35284        -0.379179     -0.434901      0.292063
C     15.36773      6.59456     10.62556         0.194723     -0.519646      0.028826
C      5.61067     14.38384     10.62556        -0.190550      0.586831      0.013705
C     15.36773     14.38384     10.35284         0.356163      0.039361     -0.146153
C      5.61067     10.35284      6.59456        -0.314178     -0.069457     -0.946757
C     15.36773     10.62556      6.59456         0.802218     -0.317096     -1.006549
C      5.61067     10.62556     14.38384        -0.483861      0.011618      0.279291
C     15.36773     10.35284     14.38384         0.661014     -0.099715      1.101951
C     10.35284      6.59456      5.61067        -0.247299     -0.614583     -0.859232
C     10.62556      6.59456     15.36773         0.051336     -0.291273      0.072854
C     10.62556     14.38384      5.61067         0.097036      1.206365     -0.432436
C     10.35284     14.38384     15.36773         0.221006      0.120820      0.712781
C      6.59456      5.61067     10.35284        -0.330863     -0.733108      0.083923
C      6.59456     15.36773     10.62556        -1.203425      0.277473      0.089781
C     14.38384      5.61067     10.62556         0.930793     -0.282489      0.026376
C     14.38384     15.36773     10.35284        -0.512221      0.769824     -0.341377
C     10.40319      3.19606      7.29314        -0.016459      0.829678     -0.391948
C     10.35913      4.25547      6.23373         0.048677     -0.460462      0.570542
C      0.08601      7.29314      7.29314        -0.017740     -0.483615     -0.347531
C      0.13007      6.23373      6.23373        -0.019337      0.018045      0.096234
C      0.08601      3.19606      3.19606         0.001064      1.241721      0.188558
C      0.13007      4.25547      4.25547        -0.051065     -0.218575     -0.214710
C     10.40319      7.29314      3.19606        -0.003599     -1.032248      0.387350
C     10.35913      6.23373      4.25547         0.027141      0.468939     -0.648182
C      7.29314     10.40319      3.19606        -0.361051      0.041619      0.784185
C      6.23373     10.35913      4.25547         0.207409      0.086842     -0.108876
C      7.29314      0.08601      7.29314        -0.592542     -0.021912     -0.267656
C      6.23373      0.13007      6.23373         0.385102     -0.066196      0.462681
C      3.19606      0.08601      3.19606         0.921379     -0.010653      0.332991
C      4.25547      0.13007      4.25547        -0.108585     -0.044559     -0.510279
C      3.19606     10.40319      7.29314         0.462868     -0.003697     -0.796881
C      4.25547     10.35913      6.23373        -0.260377      0.103676      0.249028
C      3.19606      7.29314     10.40319         0.491425     -1.332857     -0.043784
C      4.25547      6.23373     10.35913        -0.399982      0.811401      0.063863
C      7.29314      7.29314      0.08601        -0.405125     -0.226780     -0.007531
C      6.23373      6.23373      0.13007         0.160245      0.145142     -0.012137
C      3.19606      3.19606      0.08601         0.248491      0.262092     -0.019526
C      4.25547      4.25547      0.13007        -0.106344     -0.051416      0.016376
C      7.29314      3.19606     10.40319        -0.365505      0.673190      0.009965
C      6.23373      4.25547     10.35913         1.112407      0.023272      0.017169
O     10.43466      3.58206      8.50569        -0.029662      0.056548      0.446665
O     10.54374     17.39634      8.50569        -0.004501     -0.088546      0.434968
O     10.54374      3.58206     12.47271         0.044073     -0.097705     -0.138068
O     10.43466     17.39634     12.47271        -0.057585     -0.050679     -0.475080
O      8.50569     10.43466      3.58206         0.308030     -0.032737     -0.043106
O      8.50569     10.54374     17.39634         0.681621      0.026431     -0.172063
O     12.47271     10.54374      3.58206        -0.741103     -0.036505      0.141590
O     12.47271     10.43466     17.39634        -0.419230     -0.026742     -0.031206
O      3.58206      8.50569     10.43466         0.143337      1.083660     -0.006408
O     17.39634      8.50569     10.54374        -0.087367      0.413948      0.063586
O      3.58206     12.47271     10.54374         0.068351     -0.410726      0.039681
O     17.39634     12.47271     10.43466        -0.162042     -0.693943      0.001780
O      3.58206     10.43466      8.50569         0.032422     -0.072336      0.677735
O     17.39634     10.54374      8.50569        -0.068311      0.044086      0.342093
O      3.58206     10.54374     12.47271        -0.008764      0.026781     -0.297260
O     17.39634     10.43466     12.47271        -0.245859      0.016478     -0.733495
O     10.43466      8.50569      3.58206         0.112864      0.830556      0.196477
O     10.54374      8.50569     17.39634         0.036384      0.671903     -0.161853
O     10.54374     12.47271      3.58206        -0.011095     -1.016610      0.198665
O     10.43466     12.47271     17.39634        -0.028301     -0.889882     -0.197962
O      8.50569      3.58206     10.43466         0.529612      0.106574     -0.017803
O      8.50569     17.39634     10.54374         0.525132     -0.207313     -0.013098
O     12.47271      3.58206     10.54374        -0.465925      0.155738      0.056819
O     12.47271     17.39634     10.43466        -0.388069      0.036931     -0.008894
O     11.90042     11.90042     19.56718        -0.273336     -0.325057      0.259767
O     19.56718     19.56718     19.56718         0.281948      0.285370      0.286908
O     19.56718     11.90042     11.90042         0.292501     -0.302768     -0.199658
O     11.90042     19.56718     11.90042        -0.269858      0.280350     -0.246971
O      9.45224      1.03696      9.45224        -0.084381      0.053083     -0.054889
O      1.03696      9.45224      9.45224         0.035547     -0.169232     -0.113580
O      1.03696      1.03696      1.03696         0.008204      0.116663      0.210819
O      9.45224      9.45224      1.03696        -0.063006     -0.087538      0.130036
Zr     10.48920      2.52580     10.48920        -0.030188     -0.120619     -0.172729
Zr     10.48920     18.45260     10.48920         0.019719      0.230567     -0.029946
Zr     10.48920     10.48920      2.52580        -0.103712     -0.181368     -0.540227
Zr     10.48920     10.48920     18.45260        -0.039586      0.032813      0.466246
Zr      2.52580     10.48920     10.48920        -0.368206      0.305215      0.118582
Zr     18.45260     10.48920     10.48920         0.203755      0.041315     -0.241233
Pd      8.54394      9.89454     13.22857        -0.025866     -0.031005      0.019656
Pd     10.52701      9.50754     10.25761         0.062417     -0.042025     -0.050777
Pd     13.32164      8.72884     12.46997        -0.045866     -0.007605      0.023504
Pd     10.43774     10.65381     15.08365        -0.031275      0.027837      0.005873
Pd     12.95506     11.35312     13.48135         0.005198      0.004315      0.010649
Pd     14.92971     10.69513     11.30872        -0.005983      0.017718      0.009657
Pd      6.84051      7.81319     12.47865         0.011157     -0.032055     -0.028016
Pd      9.21867      7.24401      9.56615         0.016654     -0.032876     -0.035917
Pd      9.52184      7.56332     12.29104        -0.058280     -0.035156      0.002324
Pd     11.74293      7.17497     10.92655         0.030607      0.023878     -0.032333
Pd     11.60615      7.85597      8.33577         0.006714     -0.000614      0.005410
Pd      7.16029     11.74472     11.60874        -0.011521     -0.012284      0.008074
Pd      9.21233     14.33034      9.34874         0.020800      0.001806     -0.008483
Pd      8.13937     12.39074     14.18576         0.028356      0.004668     -0.015354
Pd     14.16769     14.21432      8.35019         0.028470      0.003394     -0.019071
Pd     11.67597     13.34563      8.82726         0.007689     -0.024558     -0.036016
Pd     14.09915     11.63888      8.96263        -0.021741     -0.006766      0.017907
Pd      8.73941     13.94283     12.13129        -0.001066      0.007032     -0.035000
Pd     12.19743     13.92686     13.97512         0.026061     -0.009372     -0.026671
Pd     11.37420     14.10000     11.35854         0.020160      0.010551      0.008238
Pd     14.01205     13.40365     12.08778         0.012883     -0.016922      0.041135
Pd     12.30482     11.58331     10.89568         0.014183     -0.012646     -0.020526
Pd     12.92821     12.62293      6.60969        -0.026133      0.015485     -0.008028
Pd     13.92792      8.86115      7.58222        -0.020371      0.010743      0.019234
Pd      6.96419      8.48106      8.48419         0.003797     -0.027348     -0.009303
Pd      5.55459     10.04210     10.20289        -0.011118     -0.015079     -0.039017
Pd      9.37091      9.48339      7.53930         0.020904      0.010670      0.019128
Pd      8.49935      7.00397      6.96483        -0.005820     -0.015629     -0.021555
Pd      9.65906     11.94731     10.57206         0.018690      0.014403     -0.015834
Pd     11.76376     10.64908      8.08489        -0.000248     -0.025594      0.010234
Pd     11.73288      8.96743      5.90498        -0.001884      0.022058      0.001363
Pd     10.50109     11.34534      5.77572         0.025747     -0.004353      0.024674
Ir     11.02042      9.67847     12.73699        -0.004408      0.034454     -0.002981
Ir     13.17321      9.30342      9.97261        -0.009791     -0.020507     -0.011375
Ir     10.50441     12.13182     12.94092        -0.018684      0.011040     -0.003649
Ir      7.70493     11.02587      9.11829         0.023558     -0.005046     -0.045183
Ir      9.52177     12.09442      8.01065         0.009233      0.029888      0.015701
Ir      8.05458      9.26453     10.79212        -0.049157     -0.006903     -0.012489
