35
# total energy = -301.58515065 eVC      6.68766     10.29637      7.66353         0.003188      0.010328     -0.023764
C      8.07576      9.94849      7.58434        -0.019137     -0.017226     -0.002246
C      9.41735      5.71329      7.64657        -0.010475      0.006745     -0.018564
C      1.46345      5.34606      7.68330         0.023862     -0.027843      0.016379
C      4.19290      0.76091      7.64069         0.008802     -0.007531     -0.024514
C      2.80419      1.10763      7.56899         0.038291      0.027814     -0.014009
C      0.70412      4.16441      7.65557        -0.000162      0.006557     -0.015176
C      1.08649      2.78560      7.57708         0.012657      0.019759      0.005714
C      5.35542      1.54982      7.63751        -0.007166      0.021121     -0.010493
C      5.52529      9.50822      7.68998         0.004907     -0.016513      0.019550
C     10.17739      6.89447      7.64670         0.013628     -0.012355     -0.017478
C      9.79674      8.27374      7.57507        -0.029767     -0.030563     -0.004635
C      0.77699      6.57565      7.65377         0.043403     -0.016572     -0.007425
C      1.26503      7.92082      7.57792         0.042140     -0.005248      0.018024
C     10.10452      4.48343      7.64268        -0.052308      0.002661     -0.006616
C      9.61796      3.13797      7.55800        -0.046728     -0.010854     -0.000975
C      4.27808     10.16331      7.66175         0.030887     -0.028937     -0.010867
C      2.94530      9.64235      7.58297         0.006327     -0.035848      0.015469
C      6.60223      0.89371      7.63462        -0.002071      0.050826     -0.005358
C      7.93569      1.41364      7.55104        -0.008503      0.049189      0.007415
N      8.80638      0.32618      7.47053         0.021827     -0.019933      0.012880
N      0.15832      8.76552      7.48563        -0.026354      0.016358      0.008369
N      8.54760      8.71154      7.60058        -0.047734     -0.026842      0.034238
N      2.33527      2.34583      7.59461         0.029434      0.021127      0.033523
N      2.07354     10.72805      7.49179        -0.015157      0.036466      0.008254
N     10.72619      2.29373      7.47955         0.034264     -0.011178      0.003181
N      2.57890      8.31903      7.59326         0.021272     -0.010062      0.059726
N      8.30384      2.73755      7.55671        -0.020746      0.001805      0.042419
O      5.32312      2.87853      7.57995         0.063675      0.024057     -0.030333
O      5.55991      8.17882      7.71915        -0.059387     -0.008782      0.025250
O      8.08854      5.71364      7.59185        -0.032168     -0.066976     -0.035468
O      2.79340      5.34436      7.71464         0.003633      0.066078      0.024027
Zr      6.54321      4.45529      7.49377        -0.037631      0.021505     -0.021939
Zr      4.34309      6.59948      7.75195         0.014600     -0.038162      0.017318
Zr      0.02728     10.81032      6.86646        -0.001304      0.009027     -0.101875
