152
# total energy = -1022.81320812 eVH     10.35389      5.87395      7.64558         0.477367      0.032561      0.912214
H     10.62451     15.10445      7.64558        -0.042233      0.040257      0.766206
H     10.62451      5.87395     13.33282         0.142972      0.115329     -0.603680
H     10.35389     15.10445     13.33282        -0.269179     -0.075649     -0.567149
H      7.64558     10.35389      5.87395         0.334367     -0.037855      0.191295
H      7.64558     10.62451     15.10445         0.614611     -0.186145     -0.142784
H     13.33282     10.62451      5.87395        -0.864216     -0.322331      0.166086
H     13.33282     10.35389     15.10445        -0.468365     -0.090253     -0.063790
H      5.87395      7.64558     10.35389         0.124690      1.132672     -0.141983
H     15.10445      7.64558     10.62451        -0.170127      0.402623     -0.085385
H      5.87395     13.33282     10.62451         0.142946     -0.406575     -0.071690
H     15.10445     13.33282     10.35389        -0.076957     -0.967682     -0.200591
H      5.87395     10.35389      7.64558         0.129056      0.038100      0.478985
H     15.10445     10.62451      7.64558         0.131361     -0.217717      0.801837
H      5.87395     10.62451     13.33282         0.271124     -0.027421     -0.394587
H     15.10445     10.35389     13.33282        -0.144156      0.013483     -0.622938
H     10.35389      7.64558      5.87395         0.065580      0.833654      0.121086
H     10.62451      7.64558     15.10445         0.027054      0.569154     -0.147896
H     10.62451     13.33282      5.87395         0.071943     -0.607509      0.182453
H     10.35389     13.33282     15.10445        -0.250537     -0.886265     -0.106346
H      7.64558      5.87395     10.35389         0.527889      0.036950     -0.138625
H      7.64558     15.10445     10.62451         0.914000     -0.210007      0.300342
H     13.33282      5.87395     10.62451        -0.434858      0.187672     -0.058032
H     13.33282     15.10445     10.35389        -1.004222     -0.097832      0.251443
H     12.45634     12.45634     19.01126         0.267342      0.257558     -0.224435
H     19.01126     19.01126     19.01126        -0.247659     -0.234966     -0.262496
H     19.01126     12.45634     12.45634        -0.241712      0.270148      0.239009
H     12.45634     19.01126     12.45634         0.210900     -0.283450      0.252838
C     10.35284      5.61067      6.59456        -0.132184     -0.426728     -0.422168
C     10.62556     15.36773      6.59456         0.020207      0.345749     -1.147708
C     10.62556      5.61067     14.38384        -0.025591     -0.223951      0.722435
C     10.35284     15.36773     14.38384         0.189080      0.771516      0.139003
C      6.59456     10.35284      5.61067        -0.421784     -0.041383     -0.184289
C      6.59456     10.62556     15.36773        -0.784379      0.148800      0.351722
C     14.38384     10.62556      5.61067         0.643777      0.281691     -0.362478
C     14.38384     10.35284     15.36773         0.735449     -0.123418      0.426650
C      5.61067      6.59456     10.35284        -0.427865     -0.772140      0.271106
C     15.36773      6.59456     10.62556         0.198349     -0.471262      0.045013
C      5.61067     14.38384     10.62556        -0.256228      0.380168     -0.022543
C     15.36773     14.38384     10.35284         0.404217      0.142554      0.192445
C      5.61067     10.35284      6.59456        -0.308695     -0.012160     -0.888359
C     15.36773     10.62556      6.59456         0.567197     -0.148063     -1.230658
C      5.61067     10.62556     14.38384        -0.464864      0.007530      0.910487
C     15.36773     10.35284     14.38384         0.529724     -0.174743      1.245272
C     10.35284      6.59456      5.61067        -0.036723     -0.913499     -0.677046
C     10.62556      6.59456     15.36773         0.044533     -0.675518      0.301474
C     10.62556     14.38384      5.61067         0.041606      1.259170     -0.692172
C     10.35284     14.38384     15.36773         0.092117      0.595713      0.666468
C      6.59456      5.61067     10.35284        -0.229240     -0.898326      0.128272
C      6.59456     15.36773     10.62556        -1.731213      0.495751      0.042040
C     14.38384      5.61067     10.62556         0.578495     -0.223998     -0.007851
C     14.38384     15.36773     10.35284         0.172036      0.555424     -0.236172
C     10.40319      3.19606      7.29314         0.016276      0.915029     -0.252686
C     10.35913      4.25547      6.23373        -0.051773     -0.362367      0.622591
C      0.08601      7.29314      7.29314        -0.008998     -0.236619     -0.472223
C      0.13007      6.23373      6.23373         0.002328      0.118402      0.208910
C      0.08601      3.19606      3.19606        -0.016673      0.644844      0.179483
C      0.13007      4.25547      4.25547        -0.091113     -0.200171     -0.169813
C     10.40319      7.29314      3.19606        -0.001038     -0.693142      0.530020
C     10.35913      6.23373      4.25547        -0.003788      0.524681     -0.384449
C      7.29314     10.40319      3.19606        -0.346868      0.023226      0.846929
C      6.23373     10.35913      4.25547         0.212396      0.014661     -0.144166
C      7.29314      0.08601      7.29314        -0.308105     -0.046507     -0.267902
C      6.23373      0.13007      6.23373         0.265890     -0.059290      0.290638
C      3.19606      0.08601      3.19606         0.431462     -0.052708      1.303978
C      4.25547      0.13007      4.25547        -0.117295     -0.028259     -0.461987
C      3.19606     10.40319      7.29314         0.709098      0.015423     -0.264714
C      4.25547     10.35913      6.23373        -0.137192      0.033694      0.109517
C      3.19606      7.29314     10.40319         0.603956     -1.264868      0.026390
C      4.25547      6.23373     10.35913        -0.719430      0.837318      0.046702
C      7.29314      7.29314      0.08601        -0.660320     -0.168330     -0.023149
C      6.23373      6.23373      0.13007         0.171112      0.270473     -0.010093
C      3.19606      3.19606      0.08601         0.241087      0.251120     -0.019911
C      4.25547      4.25547      0.13007        -0.052136     -0.036049      0.012705
C      7.29314      3.19606     10.40319        -0.373423      0.784532      0.016218
C      6.23373      4.25547     10.35913         0.874272     -0.159745      0.011766
O     10.43466      3.58206      8.50569        -0.049962      0.030995      0.318128
O     10.54374     17.39634      8.50569        -0.024212     -0.183029      0.605634
O     10.54374      3.58206     12.47271         0.055381      0.062104     -0.323447
O     10.43466     17.39634     12.47271        -0.024107     -0.124673     -0.582050
O      8.50569     10.43466      3.58206         0.387417     -0.023294     -0.009992
O      8.50569     10.54374     17.39634         0.470670      0.053780     -0.143346
O     12.47271     10.54374      3.58206        -0.280891      0.050384     -0.078681
O     12.47271     10.43466     17.39634        -0.854918      0.021064     -0.223936
O      3.58206      8.50569     10.43466         0.039699      0.916015      0.039741
O     17.39634      8.50569     10.54374        -0.038020      0.336870      0.078047
O      3.58206     12.47271     10.54374         0.064059     -0.420711      0.063775
O     17.39634     12.47271     10.43466        -0.169589     -0.772072      0.018280
O      3.58206     10.43466      8.50569        -0.056394     -0.066223      0.226826
O     17.39634     10.54374      8.50569        -0.135925      0.042281      0.457271
O      3.58206     10.54374     12.47271        -0.021330     -0.052533     -0.889518
O     17.39634     10.43466     12.47271        -0.197283      0.040347     -0.760423
O     10.43466      8.50569      3.58206         0.044782      0.684423      0.191858
O     10.54374      8.50569     17.39634         0.053890      0.431589     -0.078265
O     10.54374     12.47271      3.58206        -0.009114     -0.728588      0.228283
O     10.43466     12.47271     17.39634         0.050001     -0.854840     -0.277067
O      8.50569      3.58206     10.43466         0.494840      0.078169     -0.038691
O      8.50569     17.39634     10.54374         0.657433     -0.252660     -0.061305
O     12.47271      3.58206     10.54374        -0.486985      0.163236      0.039735
O     12.47271     17.39634     10.43466        -0.529434     -0.039535     -0.030408
O     11.90042     11.90042     19.56718        -0.304550     -0.312237      0.263728
O     19.56718     19.56718     19.56718         0.287491      0.271447      0.320835
O     19.56718     11.90042     11.90042         0.280846     -0.330355     -0.244758
O     11.90042     19.56718     11.90042        -0.227796      0.290808     -0.240610
O      9.45224      1.03696      9.45224        -0.073850      0.048357     -0.067125
O      1.03696      9.45224      9.45224         0.056289     -0.144765     -0.056490
O      1.03696      1.03696      1.03696         0.044544      0.032035      0.187034
O      9.45224      9.45224      1.03696        -0.039026     -0.092413      0.121905
Zr     10.48920      2.52580     10.48920        -0.007866     -0.073240     -0.022345
Zr     10.48920     18.45260     10.48920         0.058312      0.307951     -0.072144
Zr     10.48920     10.48920      2.52580        -0.104571      0.014067     -0.371484
Zr     10.48920     10.48920     18.45260        -0.135965     -0.158881      0.327568
Zr      2.52580     10.48920     10.48920        -0.345429      0.318251     -0.467841
Zr     18.45260     10.48920     10.48920         0.237498      0.040217     -0.259766
Pd      9.04434     10.26869     13.33826        -0.013787     -0.007683      0.001706
Pd     10.59337      9.73442     10.99908        -0.001541     -0.014586     -0.040941
Pd     13.75834      8.55257     12.68485         0.007839      0.000359     -0.004306
Pd     11.00052     11.08017     15.02659        -0.000523     -0.016004     -0.001387
Pd     12.86408     11.19818     13.03787         0.011238     -0.005410     -0.001221
Pd     14.97145     10.93323     11.34191         0.009451      0.013951     -0.007427
Pd      6.65980      7.43511     12.33880        -0.005642      0.022113      0.001100
Pd      9.22074      7.26391     10.14128         0.011760      0.011880     -0.033852
Pd      9.26872      7.61694     12.80997         0.003674     -0.013575     -0.020145
Pd     11.69529      7.29129     11.46833         0.004967     -0.000486     -0.008937
Pd     11.37727      8.00070      8.86247         0.047087     -0.016092     -0.005447
Pd      7.25971     11.84016     11.96505         0.003747      0.001827     -0.012515
Pd      8.90411     14.67775      9.33790         0.030165      0.007056      0.012796
Pd      8.42143     12.66427     14.32526        -0.008700     -0.007613      0.000470
Pd     13.51389     14.08033      8.56898         0.079939      0.030689     -0.047381
Pd     10.97354     13.33071      8.51816         0.079857      0.036568      0.038512
Pd     14.08088     11.51015      8.92481         0.000780      0.033655     -0.004311
Pd      8.62591     14.11093     12.10347         0.003294     -0.003365      0.001628
Pd     12.24376     13.75186     14.02500        -0.003894     -0.008687      0.002364
Pd     11.16400     14.43080     11.14967         0.021643     -0.008315      0.040761
Pd     14.06126     13.55993     12.17300        -0.010963      0.005144     -0.005561
Pd     12.31488     12.14660     10.67993         0.000530     -0.026608      0.005602
Pd     12.65450     12.31573      6.72107         0.018254      0.043202     -0.013718
Pd     13.63972      8.93345      7.91316         0.033347      0.008975      0.003775
Pd      6.85783      8.46852      8.86170         0.014910      0.005095     -0.006597
Pd      5.52815      9.93084     11.27427         0.007958      0.027268     -0.045365
Pd      9.13255      9.75495      8.30515         0.024510     -0.025382     -0.011562
Pd      8.82225      7.24015      7.48237        -0.016031     -0.002577     -0.032094
Pd      9.52569     12.08393     10.43230         0.011321      0.004631     -0.004451
Pd     11.51985     10.70810      8.58330         0.040761      0.011121     -0.020211
Pd     11.22910      9.25226      6.43744         0.036265     -0.023538     -0.010543
Pd      9.88915     11.56452      6.38293         0.026160     -0.020058     -0.014339
Ir     11.35695      9.11081     13.37164        -0.005911      0.011284     -0.036266
Ir     13.07323      9.46928     10.38974         0.004962      0.020449     -0.015952
Ir     10.54032     12.36323     12.71481        -0.006947     -0.016003      0.011673
Ir      7.13375     10.98538      9.51712         0.049877      0.007851     -0.024614
Ir      8.39828     12.46003      8.19528         0.055079      0.017254     -0.004796
Ir      8.07188      9.30800     11.12443        -0.008097      0.008536     -0.012483
