152
# total energy = -1060.00559760 eVH     10.35389      5.87395      7.64558        -0.261820     -0.004941      1.149830
H     10.62451     15.10445      7.64558         0.042738     -0.090959      0.925999
H     10.62451      5.87395     13.33282        -0.238704      0.089041     -0.790485
H     10.35389     15.10445     13.33282         0.098555     -0.297334     -0.901501
H      7.64558     10.35389      5.87395         0.932369     -0.110610      0.179910
H      7.64558     10.62451     15.10445         0.336396     -0.044894     -0.077623
H     13.33282     10.62451      5.87395        -0.875463      0.216405      0.203287
H     13.33282     10.35389     15.10445        -0.277603     -0.010926     -0.069356
H      5.87395      7.64558     10.35389         0.089265      0.416173     -0.014846
H     15.10445      7.64558     10.62451         0.015985      0.513358     -0.033681
H      5.87395     13.33282     10.62451        -0.018069     -0.958881      0.075468
H     15.10445     13.33282     10.35389        -0.077225     -0.319350      0.003758
H      5.87395     10.35389      7.64558         0.267521      0.120929      0.417779
H     15.10445     10.62451      7.64558        -0.126117     -0.176722      0.650083
H      5.87395     10.62451     13.33282        -0.090216      0.456759     -0.619028
H     15.10445     10.35389     13.33282         0.268329     -0.661862     -0.809797
H     10.35389      7.64558      5.87395        -0.049337      0.478372      0.328845
H     10.62451      7.64558     15.10445         0.210825      0.741451     -0.049846
H     10.62451     13.33282      5.87395         0.122748     -0.561772      0.203762
H     10.35389     13.33282     15.10445         0.043299     -0.284652     -0.135260
H      7.64558      5.87395     10.35389         0.336951      0.091915      0.013479
H      7.64558     15.10445     10.62451         0.368827     -0.113478      0.152816
H     13.33282      5.87395     10.62451        -0.317494      0.126999     -0.037514
H     13.33282     15.10445     10.35389        -0.653071     -0.134204      0.144194
H     12.45634     12.45634     19.01126         0.254436      0.270761     -0.229915
H     19.01126     19.01126     19.01126        -0.245617     -0.268635     -0.245473
H     19.01126     12.45634     12.45634        -0.251920      0.269371      0.234716
H     12.45634     19.01126     12.45634         0.290735     -0.236013      0.233635
C     10.35284      5.61067      6.59456         0.393392     -0.430485     -1.467791
C     10.62556     15.36773      6.59456        -0.160662      0.569515     -0.626237
C     10.62556      5.61067     14.38384         0.387267     -0.345381      0.850097
C     10.35284     15.36773     14.38384        -0.236927      0.218320      1.112396
C      6.59456     10.35284      5.61067        -1.375072      0.017759     -0.248374
C      6.59456     10.62556     15.36773        -0.652691      0.058649      0.386389
C     14.38384     10.62556      5.61067         1.310607     -0.176311     -0.620709
C     14.38384     10.35284     15.36773         0.380053     -0.121041      0.356337
C      5.61067      6.59456     10.35284        -0.297042     -0.623026     -0.011071
C     15.36773      6.59456     10.62556         0.421315     -1.008346      0.030031
C      5.61067     14.38384     10.62556        -0.124419      1.160382     -0.179988
C     15.36773     14.38384     10.35284         0.452619      0.642724     -0.025568
C      5.61067     10.35284      6.59456        -0.364523     -0.100235     -0.702797
C     15.36773     10.62556      6.59456         0.423307      0.123601     -0.756214
C      5.61067     10.62556     14.38384        -0.381902     -0.173942      1.222064
C     15.36773     10.35284     14.38384         0.285299      0.196501      1.523767
C     10.35284      6.59456      5.61067        -0.049331     -0.706596     -0.636414
C     10.62556      6.59456     15.36773        -0.086527     -0.814229      0.346091
C     10.62556     14.38384      5.61067        -0.454640      0.418563     -0.697369
C     10.35284     14.38384     15.36773        -0.151807      0.588476      0.409362
C      6.59456      5.61067     10.35284        -0.501578     -0.341787      0.041544
C      6.59456     15.36773     10.62556        -0.399655      0.468847      0.048745
C     14.38384      5.61067     10.62556         0.447335     -0.388715      0.005323
C     14.38384     15.36773     10.35284         1.121244      0.504663     -0.071218
C     10.40319      3.19606      7.29314         0.002569      0.631428     -0.335433
C     10.35913      4.25547      6.23373         0.002221     -0.450063      0.290161
C      0.08601      7.29314      7.29314        -0.013358     -0.354178     -0.495547
C      0.13007      6.23373      6.23373        -0.080554      0.822613      0.059894
C      0.08601      3.19606      3.19606        -0.001450      0.668873      0.271045
C      0.13007      4.25547      4.25547         0.022171     -0.269508     -0.523337
C     10.40319      7.29314      3.19606        -0.067840     -1.166779      0.549922
C     10.35913      6.23373      4.25547        -0.037026      0.375539     -0.195798
C      7.29314     10.40319      3.19606        -1.086679     -0.058437      0.183168
C      6.23373     10.35913      4.25547         0.364403      0.079956     -0.539589
C      7.29314      0.08601      7.29314        -0.405342      0.034315     -0.571878
C      6.23373      0.13007      6.23373         0.176942      0.133941      0.132760
C      3.19606      0.08601      3.19606         0.700841      0.024918      0.162716
C      4.25547      0.13007      4.25547        -0.168889     -0.053539     -0.369607
C      3.19606     10.40319      7.29314         0.383485     -0.024270     -0.861538
C      4.25547     10.35913      6.23373        -0.164835     -0.086369      0.094055
C      3.19606      7.29314     10.40319         0.599591     -0.385849      0.001124
C      4.25547      6.23373     10.35913        -0.118673      0.182593     -0.000917
C      7.29314      7.29314      0.08601        -0.402249     -0.330362     -0.015276
C      6.23373      6.23373      0.13007         0.202005      0.194680     -0.055286
C      3.19606      3.19606      0.08601         0.290213      0.480691     -0.023176
C      4.25547      4.25547      0.13007        -0.395048     -0.224799     -0.029082
C      7.29314      3.19606     10.40319        -0.282569      0.587412     -0.014148
C      6.23373      4.25547     10.35913         0.003139     -0.126507      0.022067
O     10.43466      3.58206      8.50569        -0.030505      0.105278      0.331171
O     10.54374     17.39634      8.50569         0.066797     -0.134943      0.591235
O     10.54374      3.58206     12.47271         0.026797      0.108757     -0.390834
O     10.43466     17.39634     12.47271         0.088231     -0.042544     -0.360349
O      8.50569     10.43466      3.58206         0.711976     -0.058322      0.010932
O      8.50569     10.54374     17.39634         0.444055      0.053871     -0.068299
O     12.47271     10.54374      3.58206        -0.652106      0.113773      0.203996
O     12.47271     10.43466     17.39634        -0.288764     -0.004745      0.009903
O      3.58206      8.50569     10.43466         0.045639      0.462857     -0.065779
O     17.39634      8.50569     10.54374        -0.062370      0.464469      0.054388
O      3.58206     12.47271     10.54374         0.113838     -0.585313      0.002479
O     17.39634     12.47271     10.43466        -0.166127     -0.734851     -0.062372
O      3.58206     10.43466      8.50569         0.217712     -0.063893      0.775967
O     17.39634     10.54374      8.50569        -0.121659      0.077597      0.607256
O      3.58206     10.54374     12.47271        -0.000006     -0.000732     -0.269926
O     17.39634     10.43466     12.47271         0.043738     -0.013943     -0.208401
O     10.43466      8.50569      3.58206        -0.102665      0.576024     -0.122212
O     10.54374      8.50569     17.39634         0.063252      0.503370     -0.102481
O     10.54374     12.47271      3.58206         0.104913     -0.621098      0.133560
O     10.43466     12.47271     17.39634        -0.061600     -0.624476     -0.236611
O      8.50569      3.58206     10.43466         0.400859      0.030206     -0.031008
O      8.50569     17.39634     10.54374         0.627032     -0.151842      0.050616
O     12.47271      3.58206     10.54374        -0.507695      0.126173      0.037646
O     12.47271     17.39634     10.43466        -0.622113     -0.140137      0.035901
O     11.90042     11.90042     19.56718        -0.274581     -0.308898      0.237438
O     19.56718     19.56718     19.56718         0.301210      0.319130      0.299242
O     19.56718     11.90042     11.90042         0.285166     -0.325135     -0.230455
O     11.90042     19.56718     11.90042        -0.318146      0.230096     -0.201612
O      9.45224      1.03696      9.45224        -0.084863      0.081141     -0.067488
O      1.03696      9.45224      9.45224         0.097696     -0.116360     -0.044948
O      1.03696      1.03696      1.03696         0.082929      0.056111      0.099324
O      9.45224      9.45224      1.03696        -0.061021     -0.132190      0.129920
Zr     10.48920      2.52580     10.48920         0.031914     -0.085888      0.062793
Zr     10.48920     18.45260     10.48920        -0.169298      0.263790     -0.343638
Zr     10.48920     10.48920      2.52580         0.124223      0.359212     -0.356406
Zr     10.48920     10.48920     18.45260        -0.079789     -0.188666      0.171166
Zr      2.52580     10.48920     10.48920        -0.252896      0.124395      0.218648
Zr     18.45260     10.48920     10.48920         0.232265     -0.108008      0.010867
Pd      9.38604     14.21264      9.39643         0.005879      0.040853     -0.025597
Pd      8.63289     13.72026     12.97469        -0.001481     -0.014437     -0.003717
Pd     12.01542     14.41335      8.75599         0.011414      0.006000     -0.011441
Pd     12.78787     12.79311     10.60373        -0.012714      0.032064      0.015740
Pd     12.16687      7.09805     12.59983        -0.021537      0.018888      0.025735
Pd     11.24878     14.79458     11.53915        -0.040253      0.030885     -0.033562
Pd     10.12244     12.45402     11.15907        -0.029831      0.031243     -0.040425
Pd     13.47600     12.13357      7.97060         0.007437     -0.001839      0.008185
Pd     11.47625     11.55120      6.11812         0.004403      0.006831     -0.009313
Pd      7.83998      8.59957      7.55371         0.017966     -0.034000     -0.012599
Pd      8.74909     11.72353      6.89998        -0.007968      0.005419     -0.008085
Pd     10.31852      9.45254      8.12722        -0.005180      0.014925      0.021268
Pd      8.50742     14.42150      6.88116         0.008231      0.011558     -0.029809
Pd     12.38185      9.02606      6.56844        -0.014763      0.007871      0.016379
Pd      9.74641      9.60669      5.54428        -0.005120     -0.001905      0.017649
Pd      6.89136      9.46297     12.19653        -0.018199      0.008820     -0.005256
Pd     12.20880      6.67075      7.84264        -0.000147      0.012933      0.023596
Pd      5.96550     10.49212      9.74736        -0.011277     -0.031634     -0.024378
Pd      7.56974      7.08964     13.18437         0.018395      0.048100      0.063963
Ir     11.84170      9.69033     13.06008        -0.025740     -0.002253     -0.018360
Ir     13.59445      8.97707     11.42480        -0.019568      0.005947      0.023141
Ir      9.42818      8.81323     13.79777         0.009561      0.003309      0.063293
Ir     10.58280     10.91813     14.84303        -0.012206      0.000770      0.055223
Ir      7.31942     12.05154     11.37423        -0.015548     -0.024403      0.011448
Ir     14.70798     10.81031     10.05274        -0.007598      0.016837      0.033777
Ir     12.20650     10.45101      9.64819        -0.005471      0.036685      0.019887
Ir      8.78005     11.05589     13.04643        -0.016320      0.022666     -0.045694
Ir     10.16258      9.82651     11.25487        -0.020737      0.001396     -0.024289
Ir     13.81648     11.35116     12.37243        -0.048590      0.002735      0.027841
Ir     11.72824     12.29240     13.11958        -0.074691      0.011203     -0.012754
Ir      8.55052     11.05697      9.40604        -0.012499      0.005407     -0.020757
Ir     11.59585      7.95719     10.04602        -0.013879      0.013242      0.023168
Ir      7.22368     12.96142      8.68959         0.018806      0.036840      0.008742
Ir      9.50475      7.00191      9.06487         0.008470      0.011211      0.028487
Ir      8.08470      8.73463     10.11485        -0.011705      0.004130     -0.001531
Ir     10.76959     12.07686      8.55371        -0.006725      0.018615     -0.021789
Ir      9.59295      7.37796     11.62235        -0.005996      0.052890      0.012431
Ir     13.70170      8.66109      8.78574        -0.003913      0.035423      0.009843
