16
# total energy = -106.94527594 eVH      2.38799      1.04764     -0.00000         0.000000     -0.005069      0.000000
H      2.38799     10.10206      0.00000         0.000000      0.005069     -0.000000
C      1.21491      8.32600     -0.00000        -0.002302     -0.001903     -0.000000
C      3.56106      8.32600     -0.00000         0.002302     -0.001903      0.000000
C      3.56106      2.82370      0.00000         0.002302      0.001903      0.000000
C      1.21491      2.82370      0.00000        -0.002302      0.001903      0.000000
N      2.38799      9.04911     -0.00000         0.000000      0.028577      0.000000
N      2.38799      2.10059      0.00000         0.000000     -0.028577      0.000000
O      1.13338      4.05932     -0.00000         0.013515      0.004976     -0.000000
O      3.64259      4.05932      0.00000        -0.013515      0.004976      0.000000
O      3.64259      7.09038      0.00000        -0.013515     -0.004976      0.000000
O      1.13338      7.09038     -0.00000         0.013515     -0.004976     -0.000000
O     -0.00000      9.08608      0.00000         0.000000      0.003644     -0.000000
O     -0.00000      2.06362     -0.00000         0.000000     -0.003644      0.000000
Ir     -0.00000     -0.00000      0.00000         0.000000      0.000000      0.000000
Ir      2.38799      5.57485      0.00000         0.000000      0.000000      0.000000
