9
# total energy = -71.24805598 eVC      2.67630      0.77010      7.50000         0.000000     -0.419837      0.000000
C      2.67630      4.58250      7.50000         0.000000      0.419837     -0.000000
C      4.58250      2.67630      7.50000         0.419837      0.000000      0.000000
C      0.77010      2.67630      7.50000        -0.419837      0.000000     -0.000000
C      3.96041      3.96041      7.50000        -0.167218     -0.167218      0.000000
C      1.39219      1.39219      7.50000         0.167218      0.167218      0.000000
C      1.39219      3.96041      7.50000         0.167218     -0.167218     -0.000000
C      3.96041      1.39219      7.50000        -0.167218      0.167218      0.000000
Pd      0.00000      0.00000      7.50000         0.000000      0.000000      0.000000
