152
# total energy = -1059.99181775 eVH     10.35389      5.87395      7.64558        -0.253917      0.000670      1.142190
H     10.62451     15.10445      7.64558         0.032391     -0.092457      0.920428
H     10.62451      5.87395     13.33282        -0.231899      0.091642     -0.787837
H     10.35389     15.10445     13.33282         0.093039     -0.294271     -0.899390
H      7.64558     10.35389      5.87395         0.928484     -0.106193      0.185093
H      7.64558     10.62451     15.10445         0.339240     -0.045370     -0.077782
H     13.33282     10.62451      5.87395        -0.866270      0.204035      0.203511
H     13.33282     10.35389     15.10445        -0.276641     -0.011834     -0.067786
H      5.87395      7.64558     10.35389         0.087327      0.412586     -0.020787
H     15.10445      7.64558     10.62451         0.017075      0.514733     -0.038880
H      5.87395     13.33282     10.62451        -0.018343     -0.968791      0.078420
H     15.10445     13.33282     10.35389        -0.075356     -0.322156      0.003336
H      5.87395     10.35389      7.64558         0.269795      0.118501      0.420224
H     15.10445     10.62451      7.64558        -0.126493     -0.173636      0.649137
H      5.87395     10.62451     13.33282        -0.099134      0.469393     -0.610699
H     15.10445     10.35389     13.33282         0.267822     -0.650589     -0.809013
H     10.35389      7.64558      5.87395        -0.045710      0.485867      0.333269
H     10.62451      7.64558     15.10445         0.214091      0.749561     -0.050220
H     10.62451     13.33282      5.87395         0.116631     -0.553592      0.204116
H     10.35389     13.33282     15.10445         0.046452     -0.288182     -0.130525
H      7.64558      5.87395     10.35389         0.341042      0.091232      0.008038
H      7.64558     15.10445     10.62451         0.368549     -0.111010      0.156930
H     13.33282      5.87395     10.62451        -0.318177      0.126220     -0.037537
H     13.33282     15.10445     10.35389        -0.653587     -0.133216      0.142763
H     12.45634     12.45634     19.01126         0.254692      0.270543     -0.229703
H     19.01126     19.01126     19.01126        -0.245931     -0.268871     -0.244988
H     19.01126     12.45634     12.45634        -0.251905      0.268775      0.235471
H     12.45634     19.01126     12.45634         0.289986     -0.236101      0.234337
C     10.35284      5.61067      6.59456         0.397072     -0.429765     -1.458532
C     10.62556     15.36773      6.59456        -0.162385      0.558798     -0.622838
C     10.62556      5.61067     14.38384         0.389234     -0.349189      0.848448
C     10.35284     15.36773     14.38384        -0.234579      0.224556      1.115322
C      6.59456     10.35284      5.61067        -1.375676      0.020747     -0.251712
C      6.59456     10.62556     15.36773        -0.657565      0.059880      0.383072
C     14.38384     10.62556      5.61067         1.293603     -0.167556     -0.615448
C     14.38384     10.35284     15.36773         0.381897     -0.121713      0.358292
C      5.61067      6.59456     10.35284        -0.299783     -0.608627     -0.006561
C     15.36773      6.59456     10.62556         0.419227     -1.012554      0.031276
C      5.61067     14.38384     10.62556        -0.114754      1.162985     -0.182906
C     15.36773     14.38384     10.35284         0.460560      0.649567     -0.025544
C      5.61067     10.35284      6.59456        -0.360385     -0.103740     -0.709721
C     15.36773     10.62556      6.59456         0.419884      0.118274     -0.756841
C      5.61067     10.62556     14.38384        -0.383767     -0.178984      1.235361
C     15.36773     10.35284     14.38384         0.285248      0.188136      1.520479
C     10.35284      6.59456      5.61067        -0.050027     -0.717658     -0.641012
C     10.62556      6.59456     15.36773        -0.094103     -0.824679      0.342628
C     10.62556     14.38384      5.61067        -0.449085      0.427790     -0.692252
C     10.35284     14.38384     15.36773        -0.151807      0.585947      0.408626
C      6.59456      5.61067     10.35284        -0.490950     -0.340127      0.051256
C      6.59456     15.36773     10.62556        -0.407829      0.476134      0.048051
C     14.38384      5.61067     10.62556         0.450136     -0.389830      0.006304
C     14.38384     15.36773     10.35284         1.124514      0.511064     -0.071221
C     10.40319      3.19606      7.29314         0.001707      0.634878     -0.340353
C     10.35913      4.25547      6.23373         0.000006     -0.447508      0.296130
C      0.08601      7.29314      7.29314        -0.013418     -0.353673     -0.492338
C      0.13007      6.23373      6.23373        -0.082940      0.816813      0.064148
C      0.08601      3.19606      3.19606        -0.001333      0.665803      0.270232
C      0.13007      4.25547      4.25547         0.020734     -0.273165     -0.508161
C     10.40319      7.29314      3.19606        -0.067584     -1.147949      0.544181
C     10.35913      6.23373      4.25547        -0.038997      0.378777     -0.190793
C      7.29314     10.40319      3.19606        -1.081950     -0.058524      0.183114
C      6.23373     10.35913      4.25547         0.361152      0.080512     -0.534783
C      7.29314      0.08601      7.29314        -0.408901      0.034639     -0.568807
C      6.23373      0.13007      6.23373         0.178296      0.132778      0.131762
C      3.19606      0.08601      3.19606         0.694581      0.024285      0.166698
C      4.25547      0.13007      4.25547        -0.168369     -0.050455     -0.367343
C      3.19606     10.40319      7.29314         0.388264     -0.024379     -0.866288
C      4.25547     10.35913      6.23373        -0.167234     -0.085486      0.096584
C      3.19606      7.29314     10.40319         0.595293     -0.380712      0.000511
C      4.25547      6.23373     10.35913        -0.124772      0.178091      0.001169
C      7.29314      7.29314      0.08601        -0.400473     -0.330254     -0.015243
C      6.23373      6.23373      0.13007         0.202832      0.195571     -0.053302
C      3.19606      3.19606      0.08601         0.291635      0.481816     -0.023082
C      4.25547      4.25547      0.13007        -0.398744     -0.225654     -0.029143
C      7.29314      3.19606     10.40319        -0.282180      0.586631     -0.014043
C      6.23373      4.25547     10.35913         0.000878     -0.134841      0.023725
O     10.43466      3.58206      8.50569        -0.030877      0.105378      0.334195
O     10.54374     17.39634      8.50569         0.068579     -0.135939      0.590775
O     10.54374      3.58206     12.47271         0.026456      0.107984     -0.388642
O     10.43466     17.39634     12.47271         0.088880     -0.048198     -0.360885
O      8.50569     10.43466      3.58206         0.718801     -0.062057      0.017575
O      8.50569     10.54374     17.39634         0.448122      0.053380     -0.069504
O     12.47271     10.54374      3.58206        -0.654138      0.111061      0.204262
O     12.47271     10.43466     17.39634        -0.292287     -0.004688      0.011401
O      3.58206      8.50569     10.43466         0.047412      0.459236     -0.063940
O     17.39634      8.50569     10.54374        -0.061894      0.463741      0.054834
O      3.58206     12.47271     10.54374         0.112025     -0.585497      0.003867
O     17.39634     12.47271     10.43466        -0.167643     -0.733922     -0.061971
O      3.58206     10.43466      8.50569         0.218069     -0.063943      0.780192
O     17.39634     10.54374      8.50569        -0.118964      0.078123      0.602827
O      3.58206     10.54374     12.47271         0.000761     -0.001091     -0.271446
O     17.39634     10.43466     12.47271         0.043941     -0.013356     -0.210031
O     10.43466      8.50569      3.58206        -0.106994      0.579440     -0.108095
O     10.54374      8.50569     17.39634         0.063345      0.501246     -0.102183
O     10.54374     12.47271      3.58206         0.104409     -0.623956      0.135061
O     10.43466     12.47271     17.39634        -0.061612     -0.626877     -0.235353
O      8.50569      3.58206     10.43466         0.398519      0.030606     -0.031296
O      8.50569     17.39634     10.54374         0.627778     -0.151790      0.051125
O     12.47271      3.58206     10.54374        -0.509244      0.125693      0.037534
O     12.47271     17.39634     10.43466        -0.620280     -0.143242      0.033630
O     11.90042     11.90042     19.56718        -0.275041     -0.308773      0.238014
O     19.56718     19.56718     19.56718         0.301736      0.319039      0.299425
O     19.56718     11.90042     11.90042         0.285500     -0.324584     -0.230388
O     11.90042     19.56718     11.90042        -0.318315      0.230938     -0.202094
O      9.45224      1.03696      9.45224        -0.085057      0.082451     -0.066192
O      1.03696      9.45224      9.45224         0.097613     -0.117130     -0.043907
O      1.03696      1.03696      1.03696         0.079405      0.053701      0.102237
O      9.45224      9.45224      1.03696        -0.057808     -0.129374      0.131970
Zr     10.48920      2.52580     10.48920         0.034370     -0.086379      0.062132
Zr     10.48920     18.45260     10.48920        -0.169848      0.263757     -0.340517
Zr     10.48920     10.48920      2.52580         0.123569      0.351790     -0.357581
Zr     10.48920     10.48920     18.45260        -0.078595     -0.188866      0.170836
Zr      2.52580     10.48920     10.48920        -0.250055      0.122703      0.217777
Zr     18.45260     10.48920     10.48920         0.229203     -0.111943      0.010335
Pd      9.37948     14.20360      9.41316         0.019674      0.058263     -0.037561
Pd      8.63800     13.71011     12.99083        -0.002783      0.003600     -0.013672
Pd     12.00388     14.41491      8.76687         0.028995      0.005140     -0.025697
Pd     12.79488     12.79365     10.60329        -0.032737      0.049266      0.023667
Pd     12.18180      7.10059     12.61253        -0.046646      0.009207      0.005649
Pd     11.25907     14.78441     11.55410        -0.049451      0.044782     -0.038096
Pd     10.12882     12.44687     11.17111        -0.059187      0.055265     -0.104577
Pd     13.46844     12.13242      7.96898         0.016718      0.002744      0.015890
Pd     11.46396     11.54609      6.12299         0.020972      0.006562     -0.033329
Pd      7.83209      8.59426      7.56714         0.028725     -0.035640     -0.020690
Pd      8.74617     11.72790      6.90843        -0.023991      0.003725     -0.033472
Pd     10.31313      9.44937      8.13804         0.002880      0.016606      0.008084
Pd      8.50376     14.42650      6.89971         0.016286      0.011821     -0.049362
Pd     12.36823      9.02588      6.57221         0.003127      0.007317      0.018688
Pd      9.73221      9.59930      5.55700         0.001763      0.004636      0.003924
Pd      6.88314      9.47364     12.18991        -0.017774     -0.010536      0.001602
Pd     12.21651      6.66778      7.84341        -0.008149      0.027001      0.039642
Pd      5.96376     10.50393      9.74402        -0.008793     -0.036797     -0.025211
Pd      7.55615      7.09039     13.13673         0.023832      0.048619      0.132054
Ir     11.83997      9.68956     13.06197        -0.018200     -0.005237      0.019174
Ir     13.59723      8.97554     11.42603        -0.013171      0.001599      0.018215
Ir      9.42406      8.80473     13.80229        -0.006920      0.024043      0.044341
Ir     10.57960     10.91435     14.84817        -0.014538     -0.015929     -0.004652
Ir      7.32205     12.05583     11.37914        -0.017124     -0.018471     -0.024509
Ir     14.70845     10.81432     10.05777         0.001563      0.012239      0.017066
Ir     12.20685     10.45243      9.65287        -0.014405      0.030929      0.003350
Ir      8.77959     11.04873     13.04635        -0.008769     -0.020726     -0.002138
Ir     10.16695      9.82493     11.25568        -0.025728      0.017357     -0.021455
Ir     13.80914     11.34775     12.37362        -0.022543      0.004337      0.045571
Ir     11.72751     12.29555     13.12805        -0.062358     -0.005043      0.023201
Ir      8.54773     11.05291      9.41103        -0.028559      0.059836     -0.007652
Ir     11.60504      7.95587     10.04700        -0.021040     -0.000827      0.001028
Ir      7.21637     12.96040      8.69373         0.025455     -0.002959      0.019998
Ir      9.50957      6.99438      9.07174         0.005088      0.040952      0.049107
Ir      8.08982      8.73062     10.12431         0.003002     -0.026728     -0.017167
Ir     10.76701     12.07582      8.55835        -0.011031      0.015987      0.008152
Ir      9.61155      7.37760     11.62733        -0.022577      0.027383     -0.006500
Ir     13.70519      8.67079      8.78079        -0.011870      0.026081      0.020139
