152
# total energy = -1093.11923874 eVH     10.35389      5.87395      7.64558         0.147817     -0.124148      1.314953
H     10.62451     15.10445      7.64558        -0.166651      0.121836      1.419986
H     10.62451      5.87395     13.33282         0.161363     -0.063578     -1.183350
H     10.35389     15.10445     13.33282        -0.062094     -0.071301     -0.973931
H      7.64558     10.35389      5.87395         0.472491      0.013826     -0.055305
H      7.64558     10.62451     15.10445         0.411898      0.003891     -0.005059
H     13.33282     10.62451      5.87395        -0.662307     -0.038839     -0.002801
H     13.33282     10.35389     15.10445        -0.417139      0.006316      0.002731
H      5.87395      7.64558     10.35389        -0.132851      1.275081      0.143772
H     15.10445      7.64558     10.62451        -0.001406      0.526863      0.037483
H      5.87395     13.33282     10.62451        -0.059030     -0.238270      0.033638
H     15.10445     13.33282     10.35389         0.243255     -1.611274      0.086382
H      5.87395     10.35389      7.64558        -0.087651     -0.707968      0.464316
H     15.10445     10.62451      7.64558         0.514089      0.843731      0.051983
H      5.87395     10.62451     13.33282        -0.021932     -0.184470     -0.294474
H     15.10445     10.35389     13.33282        -0.095364      0.207605     -0.102829
H     10.35389      7.64558      5.87395        -0.185598      0.451876      0.037697
H     10.62451      7.64558     15.10445         0.059762      0.578854      0.233531
H     10.62451     13.33282      5.87395        -0.017097     -0.475840     -0.159795
H     10.35389     13.33282     15.10445        -0.165767     -0.486835      0.230541
H      7.64558      5.87395     10.35389         0.450872     -0.012207     -0.042932
H      7.64558     15.10445     10.62451         0.301313      0.018801     -0.033384
H     13.33282      5.87395     10.62451        -0.213645     -0.097718     -0.019451
H     13.33282     15.10445     10.35389        -0.506519      0.123907     -0.027380
H     12.45634     12.45634     19.01126         0.265174      0.247285     -0.244084
H     19.01126     19.01126     19.01126        -0.261817     -0.243017     -0.253183
H     19.01126     12.45634     12.45634        -0.262770      0.265710      0.232535
H     12.45634     19.01126     12.45634         0.274620     -0.254183      0.226523
C     10.35284      5.61067      6.59456        -0.224706     -0.274490     -1.745180
C     10.62556     15.36773      6.59456         0.427131      0.120084     -1.873084
C     10.62556      5.61067     14.38384        -0.328051     -0.106522      1.668220
C     10.35284     15.36773     14.38384         0.299883      0.129201      1.649946
C      6.59456     10.35284      5.61067        -0.828518     -0.105390     -0.299493
C      6.59456     10.62556     15.36773        -0.835117     -0.012079      0.100339
C     14.38384     10.62556      5.61067         1.038209      0.034207     -0.233419
C     14.38384     10.35284     15.36773         0.786535     -0.008447      0.192337
C      5.61067      6.59456     10.35284        -0.089142     -1.553356      0.003772
C     15.36773      6.59456     10.62556         0.262711     -0.997195      0.031976
C      5.61067     14.38384     10.62556        -0.381296      0.745797      0.035719
C     15.36773     14.38384     10.35284         0.049565      1.851542     -0.074232
C      5.61067     10.35284      6.59456        -0.705621      0.247936     -1.791573
C     15.36773     10.62556      6.59456         0.775871     -0.212872     -2.013085
C      5.61067     10.62556     14.38384        -0.645834      0.090047      1.648348
C     15.36773     10.35284     14.38384         0.599225     -0.076288      1.420682
C     10.35284      6.59456      5.61067         0.026839     -1.585055     -0.778491
C     10.62556      6.59456     15.36773        -0.037602     -1.799664      0.756349
C     10.62556     14.38384      5.61067         0.108979      1.799557     -0.882375
C     10.35284     14.38384     15.36773         0.050428      1.905068      0.660082
C      6.59456      5.61067     10.35284        -0.783006     -0.796362     -0.014673
C      6.59456     15.36773     10.62556        -1.051695      0.559462      0.075540
C     14.38384      5.61067     10.62556         1.048152     -0.775655      0.095913
C     14.38384     15.36773     10.35284         0.876701      0.958785      0.005444
C     10.40319      3.19606      7.29314         0.000168      0.537123     -0.534058
C     10.35913      4.25547      6.23373        -0.023735     -0.835541      0.513268
C      0.08601      7.29314      7.29314         0.019147     -0.487049     -0.581599
C      0.13007      6.23373      6.23373         0.030629      0.889003      0.471707
C      0.08601      3.19606      3.19606         0.024271      0.710224      0.442225
C      0.13007      4.25547      4.25547        -0.042301     -0.772498     -0.494847
C     10.40319      7.29314      3.19606        -0.008239     -0.728573      0.502406
C     10.35913      6.23373      4.25547         0.020864      0.590605     -0.506147
C      7.29314     10.40319      3.19606        -0.302984     -0.008983      0.603467
C      6.23373     10.35913      4.25547         0.173959     -0.074723     -0.176640
C      7.29314      0.08601      7.29314        -0.234666     -0.030452     -0.394318
C      6.23373      0.13007      6.23373         0.152397     -0.094583      0.374374
C      3.19606      0.08601      3.19606         0.409723      0.010230      0.419832
C      4.25547      0.13007      4.25547        -0.189013      0.071452     -0.213529
C      3.19606     10.40319      7.29314         0.255693      0.026638     -0.484016
C      4.25547     10.35913      6.23373        -0.163563      0.103318      0.387379
C      3.19606      7.29314     10.40319         0.187360     -0.305335     -0.001045
C      4.25547      6.23373     10.35913        -0.554183      0.188941      0.042903
C      7.29314      7.29314      0.08601        -0.584256     -0.467546      0.005829
C      6.23373      6.23373      0.13007         0.124087      0.228902     -0.061714
C      3.19606      3.19606      0.08601         0.564413      0.412469      0.000093
C      4.25547      4.25547      0.13007        -0.059099     -0.095813     -0.029570
C      7.29314      3.19606     10.40319        -0.211402      0.364752      0.000725
C      6.23373      4.25547     10.35913         0.623045     -0.261171      0.024640
O     10.43466      3.58206      8.50569         0.011815      0.227554      0.481491
O     10.54374     17.39634      8.50569        -0.030680     -0.231659      0.510595
O     10.54374      3.58206     12.47271         0.078615      0.153119     -0.372382
O     10.43466     17.39634     12.47271        -0.110099     -0.148606     -0.384776
O      8.50569     10.43466      3.58206         0.386261     -0.019248      0.054454
O      8.50569     10.54374     17.39634         0.451657      0.058644     -0.120205
O     12.47271     10.54374      3.58206        -0.513510     -0.010313      0.118175
O     12.47271     10.43466     17.39634        -0.436567     -0.054507     -0.114077
O      3.58206      8.50569     10.43466         0.169712      0.422914     -0.048643
O     17.39634      8.50569     10.54374        -0.083263      0.555150      0.045945
O      3.58206     12.47271     10.54374         0.046476     -0.509227      0.040344
O     17.39634     12.47271     10.43466        -0.174854     -0.464395     -0.020242
O      3.58206     10.43466      8.50569         0.183342     -0.015852      0.485992
O     17.39634     10.54374      8.50569        -0.120090     -0.010816      0.456729
O      3.58206     10.54374     12.47271         0.165750      0.082359     -0.443304
O     17.39634     10.43466     12.47271        -0.206789     -0.077451     -0.577303
O     10.43466      8.50569      3.58206         0.051956      0.609377      0.259516
O     10.54374      8.50569     17.39634         0.061141      0.513380     -0.217524
O     10.54374     12.47271      3.58206        -0.016098     -0.668708      0.282108
O     10.43466     12.47271     17.39634        -0.030632     -0.530593     -0.228541
O      8.50569      3.58206     10.43466         0.513492      0.148517     -0.030175
O      8.50569     17.39634     10.54374         0.610180     -0.094142      0.051590
O     12.47271      3.58206     10.54374        -0.634765      0.120398      0.026253
O     12.47271     17.39634     10.43466        -0.496071     -0.140566     -0.015260
O     11.90042     11.90042     19.56718        -0.309977     -0.285030      0.269063
O     19.56718     19.56718     19.56718         0.309755      0.271654      0.291568
O     19.56718     11.90042     11.90042         0.314136     -0.314254     -0.234147
O     11.90042     19.56718     11.90042        -0.334205      0.281434     -0.226422
O      9.45224      1.03696      9.45224        -0.040660      0.055137     -0.065369
O      1.03696      9.45224      9.45224         0.029378     -0.080358     -0.060315
O      1.03696      1.03696      1.03696         0.026309      0.049173      0.133128
O      9.45224      9.45224      1.03696        -0.034745     -0.084843      0.134733
Zr     10.48920      2.52580     10.48920        -0.103833     -0.120281     -0.008543
Zr     10.48920     18.45260     10.48920         0.132827      0.187757     -0.114224
Zr     10.48920     10.48920      2.52580         0.010461      0.088509     -0.321408
Zr     10.48920     10.48920     18.45260        -0.028213     -0.020210      0.147336
Zr      2.52580     10.48920     10.48920        -0.030668     -0.029476     -0.042878
Zr     18.45260     10.48920     10.48920         0.117895      0.116067     -0.171134
Pd     13.01996      8.07534      7.66705        -0.059031     -0.004889      0.001349
Pd      9.57715     14.60714     11.72102        -0.012484     -0.020627      0.043697
Pd     12.34800     10.92294     10.43128         0.028226     -0.092448      0.026588
Pd     14.73166     10.06862     11.56497        -0.048783     -0.015457      0.003584
Pd     11.01531      9.28562      6.18110        -0.024520      0.039314      0.015639
Pd      6.98181      8.50116      9.02142        -0.078925      0.014891     -0.022047
Ir     10.27272     11.87211     11.75731         0.029323     -0.014858      0.053954
Ir     12.96263      8.31052     10.34076         0.010976      0.078839     -0.006484
Ir     12.31462     11.00676      7.73183        -0.027626     -0.038787      0.003276
Ir      9.66419     14.37861      9.13243         0.012322      0.029402      0.006053
Ir     10.83791      9.20429     11.72906        -0.009603      0.038633      0.033052
Ir      8.72585     10.05268      7.77288        -0.028013     -0.002921      0.014452
Ir     13.86842     12.55056      9.02449         0.016427      0.014064      0.036648
Ir     11.96449     13.58273      7.79695         0.001709      0.024670      0.010818
Ir     14.31733      9.93961      9.02595        -0.043936     -0.034677      0.041538
Ir      9.25821      7.43493     10.42331        -0.007747     -0.003296     -0.019432
Ir      8.15182     12.70120      7.82982         0.007221      0.024888     -0.030889
Ir      9.20653      7.59092      7.84419        -0.036381     -0.057561     -0.022344
Ir     11.86539     13.55927     13.01906        -0.031014     -0.042287     -0.007270
Ir     11.46276      6.71721     11.74999        -0.045638      0.002531     -0.013674
Ir     10.24784     11.81631      9.07757         0.050154     -0.035673     -0.025696
Ir     12.96446      8.37768     12.98366        -0.019914     -0.013479      0.038158
Ir     10.86618      9.15829      9.00455        -0.052939      0.048403     -0.050688
Ir     11.78028     13.60460     10.39566         0.056480      0.030061      0.019069
Ir     13.83513     12.65859     11.77995         0.015564      0.010539     -0.007134
Ir     12.39733     11.03575     13.09427        -0.034186     -0.026869     -0.028185
Ir     10.14477     11.68881      6.48309        -0.025825     -0.032843      0.037905
Ir     11.36003      6.59703      9.24067         0.002696     -0.030119     -0.060130
Ir      7.24656      8.35794     11.83163        -0.035205     -0.007800     -0.040466
Ir      8.18905     12.70475     10.42866        -0.046164      0.042524      0.006689
Ir     10.94348      9.28694     14.28910        -0.033748     -0.011394     -0.003156
Ir      8.10738     12.55298     12.98913        -0.014888     -0.017731     -0.015896
Ir      6.57661     11.21308      9.09963         0.033079     -0.029030      0.038869
Ir      8.69693     10.05813     13.08108        -0.031495     -0.012994     -0.035505
Ir      6.61651     10.90205     11.56000        -0.011324     -0.014788     -0.009557
Ir      9.18317      7.47979     13.08437        -0.028437     -0.013358     -0.055616
Ir     10.21553     11.67163     14.36953         0.018731     -0.037465     -0.051033
Ir      8.75157     10.05480     10.41732        -0.065497     -0.003650      0.033178
