26
# total energy = -205.61006410 eVC      0.70515      1.25227      7.50000        -0.026405      0.009943      0.000000
C     10.79439      6.56667      7.50000         0.009903     -0.003899     -0.000000
C      0.73743     11.42932      7.50000         0.006478     -0.014239      0.000000
C     11.52900      5.33316      7.50000         0.026405     -0.009943      0.000000
C      1.43976      0.01875      7.50000        -0.009903      0.003899      0.000000
C     11.49672     -4.84389      7.50000        -0.006478      0.014239      0.000000
C     10.79534     -3.64990      7.50000         0.106121     -0.180563     -0.000000
C     10.85627      4.12273      7.50000         0.054650      0.145483     -0.000000
C      2.82941      0.04149      7.50000         0.004475      0.011325      0.000000
C      1.43881     10.23532      7.50000        -0.106121      0.180563      0.000000
C      1.37788      2.46269      7.50000        -0.054650     -0.145483      0.000000
C      9.40474      6.54393      7.50000        -0.004475     -0.011325     -0.000000
N      7.77039      0.25885      7.50000        -0.111386     -0.006645      0.000000
N      4.46376      6.32657      7.50000         0.111386      0.006645      0.000000
N      4.01221      0.08497      7.50000        -0.041725     -0.005292      0.000000
N     10.22819     -2.61342      7.50000        -0.059207      0.145052      0.000000
N     10.29390      3.08294      7.50000        -0.021949     -0.070929      0.000000
N      8.22194      6.50045      7.50000         0.041725      0.005292     -0.000000
N      2.00596      9.19884      7.50000         0.059207     -0.145052     -0.000000
N      1.94025      3.50248      7.50000         0.021949      0.070929      0.000000
Ir      2.98605      7.53245      7.50000         0.032039     -0.016841     -0.000000
Ir      2.97942      5.13062      7.50000         0.002602      0.025096      0.000000
Ir      6.29450      6.40759      7.50000        -0.045584      0.006688      0.000000
Ir      9.24810     -0.94703      7.50000        -0.032039      0.016841     -0.000000
Ir      9.25473      1.45480      7.50000        -0.002602     -0.025096     -0.000000
Ir      5.93965      0.17783      7.50000         0.045584     -0.006688     -0.000000
