152
# total energy = -1060.09930144 eVH     10.35389      5.87395      7.64558        -0.283804      0.047591      1.125237
H     10.62451     15.10445      7.64558         0.087080     -0.087697      0.924714
H     10.62451      5.87395     13.33282        -0.260188      0.078085     -0.787028
H     10.35389     15.10445     13.33282         0.098120     -0.302363     -0.862562
H      7.64558     10.35389      5.87395         0.930061     -0.140856      0.189145
H      7.64558     10.62451     15.10445         0.330471     -0.034874     -0.069370
H     13.33282     10.62451      5.87395        -0.859996      0.194912      0.204908
H     13.33282     10.35389     15.10445        -0.278723     -0.014849     -0.068148
H      5.87395      7.64558     10.35389         0.088231      0.414937     -0.009913
H     15.10445      7.64558     10.62451        -0.008660      0.492731     -0.025871
H      5.87395     13.33282     10.62451        -0.016388     -0.963255      0.080302
H     15.10445     13.33282     10.35389        -0.088248     -0.320263      0.005264
H      5.87395     10.35389      7.64558         0.285958      0.109616      0.403335
H     15.10445     10.62451      7.64558        -0.123912     -0.170071      0.665502
H      5.87395     10.62451     13.33282        -0.083001      0.462580     -0.616862
H     15.10445     10.35389     13.33282         0.239977     -0.617320     -0.836840
H     10.35389      7.64558      5.87395        -0.039788      0.486546      0.335430
H     10.62451      7.64558     15.10445         0.272706      0.780913     -0.028217
H     10.62451     13.33282      5.87395         0.126752     -0.576697      0.210087
H     10.35389     13.33282     15.10445         0.040970     -0.288535     -0.145349
H      7.64558      5.87395     10.35389         0.350090      0.102998      0.034198
H      7.64558     15.10445     10.62451         0.379050     -0.118507      0.169925
H     13.33282      5.87395     10.62451        -0.315931      0.131355     -0.029459
H     13.33282     15.10445     10.35389        -0.653201     -0.130108      0.149594
H     12.45634     12.45634     19.01126         0.255854      0.271514     -0.228514
H     19.01126     19.01126     19.01126        -0.246906     -0.267698     -0.245234
H     19.01126     12.45634     12.45634        -0.250735      0.269983      0.235561
H     12.45634     19.01126     12.45634         0.290273     -0.235460      0.234988
C     10.35284      5.61067      6.59456         0.401503     -0.417740     -1.422450
C     10.62556     15.36773      6.59456        -0.157652      0.595422     -0.653846
C     10.62556      5.61067     14.38384         0.381299     -0.332411      0.828537
C     10.35284     15.36773     14.38384        -0.221730      0.228972      1.069916
C      6.59456     10.35284      5.61067        -1.375136      0.020602     -0.228559
C      6.59456     10.62556     15.36773        -0.654833      0.065027      0.366110
C     14.38384     10.62556      5.61067         1.308846     -0.168795     -0.632711
C     14.38384     10.35284     15.36773         0.352647     -0.125268      0.356494
C      5.61067      6.59456     10.35284        -0.285412     -0.650532     -0.022300
C     15.36773      6.59456     10.62556         0.419945     -0.951758      0.029272
C      5.61067     14.38384     10.62556        -0.138360      1.168850     -0.185790
C     15.36773     14.38384     10.35284         0.469855      0.657037     -0.028244
C      5.61067     10.35284      6.59456        -0.372594     -0.100029     -0.732376
C     15.36773     10.62556      6.59456         0.401677      0.116098     -0.722384
C      5.61067     10.62556     14.38384        -0.389077     -0.170635      1.231882
C     15.36773     10.35284     14.38384         0.260905      0.194283      1.451387
C     10.35284      6.59456      5.61067        -0.056084     -0.721014     -0.588659
C     10.62556      6.59456     15.36773        -0.115751     -0.907943      0.350271
C     10.62556     14.38384      5.61067        -0.476986      0.405498     -0.714924
C     10.35284     14.38384     15.36773        -0.160590      0.610441      0.422153
C      6.59456      5.61067     10.35284        -0.516217     -0.330469      0.022890
C      6.59456     15.36773     10.62556        -0.364528      0.445913      0.060121
C     14.38384      5.61067     10.62556         0.447290     -0.369203      0.002448
C     14.38384     15.36773     10.35284         1.119243      0.495884     -0.073361
C     10.40319      3.19606      7.29314        -0.001826      0.687489     -0.339559
C     10.35913      4.25547      6.23373         0.012534     -0.418999      0.289207
C      0.08601      7.29314      7.29314        -0.014423     -0.371659     -0.506583
C      0.13007      6.23373      6.23373        -0.067365      0.858607      0.067812
C      0.08601      3.19606      3.19606        -0.003596      0.682460      0.265346
C      0.13007      4.25547      4.25547         0.034381     -0.269029     -0.546394
C     10.40319      7.29314      3.19606        -0.066524     -1.149325      0.587387
C     10.35913      6.23373      4.25547        -0.038909      0.362307     -0.199470
C      7.29314     10.40319      3.19606        -1.085891     -0.056309      0.197309
C      6.23373     10.35913      4.25547         0.367566      0.087782     -0.541716
C      7.29314      0.08601      7.29314        -0.438345      0.032697     -0.509503
C      6.23373      0.13007      6.23373         0.184579      0.127537      0.127191
C      3.19606      0.08601      3.19606         0.690500      0.024243      0.167504
C      4.25547      0.13007      4.25547        -0.173664     -0.051812     -0.352978
C      3.19606     10.40319      7.29314         0.387499     -0.026180     -0.899251
C      4.25547     10.35913      6.23373        -0.151558     -0.074968      0.101871
C      3.19606      7.29314     10.40319         0.607937     -0.399201      0.002995
C      4.25547      6.23373     10.35913        -0.113060      0.181367      0.001796
C      7.29314      7.29314      0.08601        -0.413073     -0.313252     -0.014830
C      6.23373      6.23373      0.13007         0.178858      0.186200     -0.068836
C      3.19606      3.19606      0.08601         0.289649      0.480817     -0.024356
C      4.25547      4.25547      0.13007        -0.407596     -0.232830     -0.034249
C      7.29314      3.19606     10.40319        -0.278730      0.593662     -0.010626
C      6.23373      4.25547     10.35913         0.004725     -0.110079      0.019577
O     10.43466      3.58206      8.50569        -0.028312      0.092395      0.320806
O     10.54374     17.39634      8.50569         0.061777     -0.127899      0.592178
O     10.54374      3.58206     12.47271         0.028147      0.106433     -0.393299
O     10.43466     17.39634     12.47271         0.090447     -0.048210     -0.393141
O      8.50569     10.43466      3.58206         0.709464     -0.062506      0.011638
O      8.50569     10.54374     17.39634         0.488558      0.057819     -0.082741
O     12.47271     10.54374      3.58206        -0.645850      0.117350      0.204079
O     12.47271     10.43466     17.39634        -0.282539     -0.004303      0.024613
O      3.58206      8.50569     10.43466         0.039209      0.460206     -0.068260
O     17.39634      8.50569     10.54374        -0.058888      0.450976      0.056955
O      3.58206     12.47271     10.54374         0.114103     -0.582723      0.001671
O     17.39634     12.47271     10.43466        -0.173501     -0.743993     -0.055243
O      3.58206     10.43466      8.50569         0.210657     -0.061102      0.787900
O     17.39634     10.54374      8.50569        -0.095006      0.075371      0.544445
O      3.58206     10.54374     12.47271        -0.000349     -0.003316     -0.268584
O     17.39634     10.43466     12.47271         0.037399     -0.012020     -0.229740
O     10.43466      8.50569      3.58206        -0.104850      0.566457     -0.115136
O     10.54374      8.50569     17.39634         0.067517      0.505876     -0.086510
O     10.54374     12.47271      3.58206         0.104643     -0.624750      0.132830
O     10.43466     12.47271     17.39634        -0.060187     -0.655067     -0.256382
O      8.50569      3.58206     10.43466         0.394183      0.025648     -0.037578
O      8.50569     17.39634     10.54374         0.631721     -0.155340      0.047209
O     12.47271      3.58206     10.54374        -0.508889      0.126853      0.035131
O     12.47271     17.39634     10.43466        -0.622291     -0.130807      0.040885
O     11.90042     11.90042     19.56718        -0.273864     -0.306963      0.232791
O     19.56718     19.56718     19.56718         0.304179      0.318347      0.299309
O     19.56718     11.90042     11.90042         0.284420     -0.324414     -0.232500
O     11.90042     19.56718     11.90042        -0.315877      0.229191     -0.203038
O      9.45224      1.03696      9.45224        -0.084022      0.086748     -0.067993
O      1.03696      9.45224      9.45224         0.103921     -0.117325     -0.048206
O      1.03696      1.03696      1.03696         0.084263      0.056644      0.096615
O      9.45224      9.45224      1.03696        -0.061416     -0.131916      0.130959
Zr     10.48920      2.52580     10.48920         0.032690     -0.091173      0.083630
Zr     10.48920     18.45260     10.48920        -0.173428      0.259177     -0.345955
Zr     10.48920     10.48920      2.52580         0.120216      0.354928     -0.344856
Zr     10.48920     10.48920     18.45260        -0.083113     -0.207162      0.190689
Zr      2.52580     10.48920     10.48920        -0.255672      0.129199      0.232176
Zr     18.45260     10.48920     10.48920         0.223435     -0.118145     -0.006238
Pd      9.39799     14.27342      9.34451         0.003357      0.030124     -0.023529
Pd      8.61098     13.68917     12.99892        -0.019133     -0.025665      0.038561
Pd     12.03994     14.41614      8.73959         0.011475     -0.024031      0.007490
Pd     12.76047     12.82115     10.63534        -0.054251      0.010532      0.043340
Pd     12.14470      7.11626     12.61530         0.004135      0.003495      0.003337
Pd     11.20435     14.84552     11.49288        -0.013934      0.030722     -0.025727
Pd     10.06504     12.51085     11.11059        -0.038747      0.050877     -0.032508
Pd     13.48498     12.13902      7.98419         0.016573      0.016827     -0.009830
Pd     11.48210     11.56000      6.11157         0.007196      0.005209      0.010258
Pd      7.86091      8.53999      7.54165         0.018990     -0.046122      0.000902
Pd      8.73402     11.73346      6.88238         0.002965      0.012684     -0.013881
Pd     10.30517      9.46778      8.14499        -0.017046     -0.010292      0.011234
Pd      8.50655     14.43918      6.83038        -0.008947      0.014604     -0.025282
Pd     12.36583      9.03719      6.59108        -0.001508      0.013900      0.018265
Pd      9.74483      9.61227      5.55330        -0.000515      0.005418      0.003113
Pd      6.86007      9.45555     12.18254        -0.014220     -0.004620     -0.006336
Pd     12.20900      6.69441      7.87862         0.000682      0.011754      0.021073
Pd      5.94696     10.45947      9.72424        -0.019866     -0.008331     -0.010162
Pd      7.57456      7.14630     13.27996        -0.017537      0.013978      0.048601
Ir     11.78689      9.70058     13.05911        -0.034803     -0.001886      0.000437
Ir     13.57452      9.00141     11.45062        -0.018454      0.026716      0.001491
Ir      9.41856      8.82827     13.91416        -0.000568     -0.033643      0.031444
Ir     10.55504     10.91172     14.88471        -0.030632      0.034904      0.078832
Ir      7.28257     12.02476     11.36733         0.002240     -0.022151      0.012751
Ir     14.68727     10.84943     10.11307        -0.010933      0.030039      0.032299
Ir     12.20159     10.49011      9.65113        -0.006412      0.008097     -0.008753
Ir      8.77527     11.02794     13.01550         0.082648      0.019678     -0.057407
Ir     10.14150      9.87234     11.20856        -0.020181      0.013485     -0.057827
Ir     13.75334     11.37116     12.42751        -0.055422     -0.016228      0.051349
Ir     11.62749     12.29025     13.11027        -0.096893     -0.000697     -0.019676
Ir      8.52520     11.08063      9.37767         0.007717      0.005550     -0.008522
Ir     11.59949      7.98081     10.07344         0.002951      0.018530      0.024741
Ir      7.24472     13.01193      8.69974        -0.013623      0.029326     -0.009203
Ir      9.52180      6.99941      9.12583         0.001767     -0.001372      0.041862
Ir      8.06863      8.75139     10.09767        -0.003547      0.006779     -0.025049
Ir     10.75816     12.09714      8.53605        -0.002387      0.023582     -0.019841
Ir      9.56454      7.47199     11.67892        -0.006388      0.071891      0.035638
Ir     13.70502      8.70511      8.81081        -0.007690      0.010890      0.025062
