26
# total energy = -205.61063452 eVC      0.70327      1.25144      7.50000         0.003482     -0.005416      0.000000
C     10.79570      6.56650      7.50000         0.030421     -0.000784      0.000000
C      0.73810     11.42913      7.50000        -0.000489     -0.003956      0.000000
C     11.53088      5.33398      7.50000        -0.003482      0.005416      0.000000
C      1.43845      0.01892      7.50000        -0.030421      0.000784     -0.000000
C     11.49605     -4.84371      7.50000         0.000489      0.003956      0.000000
C     10.79622     -3.64996      7.50000        -0.003376      0.011207      0.000000
C     10.85599      4.12589      7.50000        -0.003544     -0.025416     -0.000000
C      2.82665      0.04364      7.50000         0.036664     -0.000341      0.000000
C      1.43793     10.23538      7.50000         0.003376     -0.011207      0.000000
C      1.37816      2.45953      7.50000         0.003544      0.025416      0.000000
C      9.40750      6.54179      7.50000        -0.036664      0.000341     -0.000000
N      7.76443      0.25958      7.50000         0.001548      0.009582      0.000000
N      4.46972      6.32584      7.50000        -0.001548     -0.009582      0.000000
N      4.00934      0.08397      7.50000        -0.025365     -0.004678     -0.000000
N     10.23050     -2.61071      7.50000        -0.002734      0.010427     -0.000000
N     10.29643      3.08324      7.50000        -0.002728     -0.004648      0.000000
N      8.22481      6.50145      7.50000         0.025365      0.004678     -0.000000
N      2.00365      9.19613      7.50000         0.002734     -0.010427     -0.000000
N      1.93772      3.50218      7.50000         0.002728      0.004648     -0.000000
Ir      2.99154      7.53260      7.50000         0.011055     -0.010626      0.000000
Ir      2.98049      5.13099      7.50000         0.012532      0.010237      0.000000
Ir      6.29745      6.40890      7.50000         0.000447     -0.002053      0.000000
Ir      9.24261     -0.94718      7.50000        -0.011055      0.010626      0.000000
Ir      9.25366      1.45444      7.50000        -0.012532     -0.010237      0.000000
Ir      5.93670      0.17652      7.50000        -0.000447      0.002053      0.000000
