152
# total energy = -1024.34122750 eVH     10.35389      5.87395      7.64558         0.476249      0.035546      0.749473
H     10.62451     15.10445      7.64558         0.027587     -0.193007      0.604092
H     10.62451      5.87395     13.33282         0.098921      0.160114     -0.571930
H     10.35389     15.10445     13.33282        -0.444170     -0.046570     -0.767984
H      7.64558     10.35389      5.87395         0.339788      0.015031      0.166376
H      7.64558     10.62451     15.10445         0.898759     -0.302046      0.000245
H     13.33282     10.62451      5.87395        -0.756553     -0.058717      0.155985
H     13.33282     10.35389     15.10445        -0.877240     -0.401378      0.203786
H      5.87395      7.64558     10.35389         0.197797      0.686025     -0.201392
H     15.10445      7.64558     10.62451        -0.139062      0.395427     -0.035435
H      5.87395     13.33282     10.62451         0.159880     -0.526265     -0.116393
H     15.10445     13.33282     10.35389        -0.086589     -1.188464      0.036051
H      5.87395     10.35389      7.64558         0.136388      0.148319      0.521833
H     15.10445     10.62451      7.64558         0.000897      0.112129      1.032791
H      5.87395     10.62451     13.33282         0.096911     -0.051668     -0.427721
H     15.10445     10.35389     13.33282        -0.135185     -0.169346     -0.514840
H     10.35389      7.64558      5.87395         0.063917      0.982680      0.230735
H     10.62451      7.64558     15.10445         0.006020      0.274163     -0.171727
H     10.62451     13.33282      5.87395        -0.098081     -0.413902      0.322585
H     10.35389     13.33282     15.10445        -0.449491     -0.621210     -0.013371
H      7.64558      5.87395     10.35389         0.488803      0.110276     -0.020967
H      7.64558     15.10445     10.62451         0.913220     -0.245920     -0.102560
H     13.33282      5.87395     10.62451        -0.587017      0.125019     -0.073835
H     13.33282     15.10445     10.35389        -0.602431     -0.055002      0.230551
H     12.45634     12.45634     19.01126         0.236149      0.277935     -0.235917
H     19.01126     19.01126     19.01126        -0.251226     -0.247023     -0.242749
H     19.01126     12.45634     12.45634        -0.264588      0.266435      0.220590
H     12.45634     19.01126     12.45634         0.234885     -0.265379      0.240118
C     10.35284      5.61067      6.59456        -0.196310     -0.654250      0.072904
C     10.62556     15.36773      6.59456        -0.031688      0.384774     -0.800686
C     10.62556      5.61067     14.38384        -0.007560     -0.059668      0.692764
C     10.35284     15.36773     14.38384         0.164298      0.717351      0.184444
C      6.59456     10.35284      5.61067        -0.350415     -0.020838     -0.287513
C      6.59456     10.62556     15.36773        -1.035997      0.315522      0.330380
C     14.38384     10.62556      5.61067         0.415240      0.343239     -0.645179
C     14.38384     10.35284     15.36773         1.002719     -0.000464      0.303677
C      5.61067      6.59456     10.35284        -0.363646     -0.403126      0.354087
C     15.36773      6.59456     10.62556         0.193455     -0.514526      0.024404
C      5.61067     14.38384     10.62556        -0.198714      0.591275      0.012850
C     15.36773     14.38384     10.35284         0.347473      0.052863     -0.161205
C      5.61067     10.35284      6.59456        -0.316842     -0.075659     -0.986812
C     15.36773     10.62556      6.59456         0.827430     -0.333356     -0.959761
C      5.61067     10.62556     14.38384        -0.462761      0.022148      0.278969
C     15.36773     10.35284     14.38384         0.660740     -0.095512      1.086220
C     10.35284      6.59456      5.61067        -0.246798     -0.574131     -0.888209
C     10.62556      6.59456     15.36773         0.053615     -0.280084      0.057178
C     10.62556     14.38384      5.61067         0.090788      1.201828     -0.430136
C     10.35284     14.38384     15.36773         0.238785      0.142898      0.708564
C      6.59456      5.61067     10.35284        -0.266467     -0.739752      0.102628
C      6.59456     15.36773     10.62556        -1.208815      0.267425      0.122738
C     14.38384      5.61067     10.62556         0.971433     -0.288847      0.030168
C     14.38384     15.36773     10.35284        -0.519944      0.781839     -0.389486
C     10.40319      3.19606      7.29314        -0.021306      0.849407     -0.397726
C     10.35913      4.25547      6.23373         0.054252     -0.486455      0.558188
C      0.08601      7.29314      7.29314        -0.019662     -0.462186     -0.348005
C      0.13007      6.23373      6.23373        -0.020567      0.016857      0.099735
C      0.08601      3.19606      3.19606         0.004201      1.250746      0.190281
C      0.13007      4.25547      4.25547        -0.049123     -0.217798     -0.211245
C     10.40319      7.29314      3.19606        -0.007287     -1.031052      0.380072
C     10.35913      6.23373      4.25547         0.031770      0.465178     -0.653887
C      7.29314     10.40319      3.19606        -0.337582      0.038680      0.742647
C      6.23373     10.35913      4.25547         0.183896      0.083430     -0.102285
C      7.29314      0.08601      7.29314        -0.607650     -0.023403     -0.267223
C      6.23373      0.13007      6.23373         0.383425     -0.076758      0.477895
C      3.19606      0.08601      3.19606         0.959742     -0.009128      0.288979
C      4.25547      0.13007      4.25547        -0.116657     -0.040199     -0.511660
C      3.19606     10.40319      7.29314         0.432180     -0.009300     -0.877081
C      4.25547     10.35913      6.23373        -0.267877      0.100933      0.253218
C      3.19606      7.29314     10.40319         0.499317     -1.320292     -0.043090
C      4.25547      6.23373     10.35913        -0.462649      0.788438      0.090133
C      7.29314      7.29314      0.08601        -0.400275     -0.221826     -0.004559
C      6.23373      6.23373      0.13007         0.159818      0.147424     -0.007118
C      3.19606      3.19606      0.08601         0.248529      0.260894     -0.018002
C      4.25547      4.25547      0.13007        -0.111874     -0.054608      0.013848
C      7.29314      3.19606     10.40319        -0.373993      0.661222      0.008597
C      6.23373      4.25547     10.35913         1.117696     -0.015913      0.036708
O     10.43466      3.58206      8.50569        -0.028160      0.050972      0.443784
O     10.54374     17.39634      8.50569        -0.005930     -0.095671      0.443092
O     10.54374      3.58206     12.47271         0.042182     -0.100752     -0.136793
O     10.43466     17.39634     12.47271        -0.057892     -0.050471     -0.474894
O      8.50569     10.43466      3.58206         0.304931     -0.032655     -0.033852
O      8.50569     10.54374     17.39634         0.691468      0.025437     -0.179634
O     12.47271     10.54374      3.58206        -0.764976     -0.040825      0.148793
O     12.47271     10.43466     17.39634        -0.363493     -0.025950     -0.001291
O      3.58206      8.50569     10.43466         0.150346      1.080766     -0.019898
O     17.39634      8.50569     10.54374        -0.092424      0.418087      0.060706
O      3.58206     12.47271     10.54374         0.068879     -0.404879      0.038967
O     17.39634     12.47271     10.43466        -0.162541     -0.688963     -0.002553
O      3.58206     10.43466      8.50569         0.046700     -0.071920      0.736149
O     17.39634     10.54374      8.50569        -0.067814      0.045028      0.342512
O      3.58206     10.54374     12.47271        -0.011592      0.033294     -0.267528
O     17.39634     10.43466     12.47271        -0.247807      0.010729     -0.715103
O     10.43466      8.50569      3.58206         0.114299      0.825602      0.197494
O     10.54374      8.50569     17.39634         0.035968      0.656266     -0.156871
O     10.54374     12.47271      3.58206        -0.002940     -1.014648      0.190696
O     10.43466     12.47271     17.39634        -0.029151     -0.904940     -0.202484
O      8.50569      3.58206     10.43466         0.542382      0.112955     -0.016760
O      8.50569     17.39634     10.54374         0.521084     -0.205608     -0.011778
O     12.47271      3.58206     10.54374        -0.466813      0.156733      0.056871
O     12.47271     17.39634     10.43466        -0.403446      0.029005     -0.006963
O     11.90042     11.90042     19.56718        -0.268687     -0.327019      0.256076
O     19.56718     19.56718     19.56718         0.281896      0.288086      0.285332
O     19.56718     11.90042     11.90042         0.296654     -0.302312     -0.201964
O     11.90042     19.56718     11.90042        -0.269369      0.283259     -0.247576
O      9.45224      1.03696      9.45224        -0.081357      0.048583     -0.057863
O      1.03696      9.45224      9.45224         0.037228     -0.161382     -0.118446
O      1.03696      1.03696      1.03696         0.014289      0.117924      0.205587
O      9.45224      9.45224      1.03696        -0.065373     -0.086500      0.123958
Zr     10.48920      2.52580     10.48920        -0.040276     -0.117402     -0.168305
Zr     10.48920     18.45260     10.48920         0.019812      0.222891     -0.026430
Zr     10.48920     10.48920      2.52580        -0.130770     -0.184123     -0.530227
Zr     10.48920     10.48920     18.45260        -0.038753      0.018332      0.465283
Zr      2.52580     10.48920     10.48920        -0.359491      0.293516      0.159166
Zr     18.45260     10.48920     10.48920         0.203704      0.047150     -0.222542
Pd      8.48080      9.83514     13.24074        -0.085553     -0.059333     -0.034341
Pd     10.52063      9.48643     10.22333         0.084289     -0.017971     -0.044632
Pd     13.23195      8.72382     12.46038        -0.062946      0.034311      0.026420
Pd     10.40150     10.70238     15.06969        -0.046351     -0.002894     -0.001297
Pd     12.90900     11.34758     13.50317         0.016470     -0.011016      0.028126
Pd     14.88499     10.68366     11.33092         0.037024      0.003704      0.009183
Pd      6.84726      7.71472     12.38284         0.027955      0.000868     -0.017579
Pd      9.21598      7.23611      9.52416         0.009416     -0.023349      0.011271
Pd      9.53236      7.56052     12.24955        -0.009305      0.003067      0.000899
Pd     11.74066      7.14310     10.87242         0.022537      0.007943     -0.013424
Pd     11.62268      7.83356      8.29762         0.002709      0.036819      0.049303
Pd      7.15380     11.72767     11.57595         0.006895     -0.011232      0.019578
Pd      9.24500     14.32324      9.31701         0.018745      0.003106      0.008145
Pd      8.13630     12.37954     14.13535         0.034313     -0.036806     -0.048707
Pd     14.22467     14.22656      8.32944        -0.046203     -0.025389      0.033721
Pd     11.71942     13.34718      8.81540        -0.013810     -0.051412     -0.012804
Pd     14.10257     11.65874      8.97575         0.028602     -0.053171      0.020530
Pd      8.72116     13.96543     12.08509         0.041883     -0.054282     -0.012516
Pd     12.20361     13.94187     13.95655         0.007402      0.031156      0.024961
Pd     11.38087     14.11048     11.33690        -0.000672     -0.010001     -0.005045
Pd     14.00859     13.35766     12.08564         0.019849      0.004563      0.001304
Pd     12.27929     11.55639     10.89247         0.009384     -0.010040     -0.059219
Pd     12.95768     12.63683      6.59626         0.010387     -0.008620      0.022549
Pd     13.95248      8.84269      7.57722        -0.012285      0.007843      0.020120
Pd      6.97453      8.47486      8.44621        -0.000403      0.004629     -0.000845
Pd      5.55327     10.04862     10.11955         0.026592     -0.005040     -0.009348
Pd      9.39641      9.47262      7.51641         0.015454      0.021399     -0.012916
Pd      8.49316      6.98447      6.93675        -0.004793      0.008105     -0.044828
Pd      9.64625     11.93852     10.55942         0.085323      0.091081      0.122813
Pd     11.80228     10.63393      8.06867        -0.071507      0.012436      0.001106
Pd     11.76843      8.95496      5.88563        -0.023340     -0.010723     -0.027562
Pd     10.55956     11.34097      5.76442        -0.005987      0.002381      0.029792
Ir     10.94847      9.72879     12.71241        -0.007516     -0.004486      0.019833
Ir     13.17763      9.28806      9.95896        -0.062990     -0.010001     -0.031921
Ir     10.49553     12.18236     12.93047        -0.055008      0.059209     -0.100015
Ir      7.73467     11.02818      9.07319        -0.158586     -0.091907      0.048032
Ir      9.57010     12.08522      8.00156         0.113071      0.018536     -0.119264
Ir      8.04429      9.26786     10.76240        -0.086693     -0.080519      0.014060
