152
# total energy = -1060.15326646 eVH     10.35389      5.87395      7.64558        -0.316341      0.100560      1.087474
H     10.62451     15.10445      7.64558         0.081499     -0.070982      0.898597
H     10.62451      5.87395     13.33282        -0.268350      0.072785     -0.782405
H     10.35389     15.10445     13.33282         0.093400     -0.303072     -0.820551
H      7.64558     10.35389      5.87395         0.894123     -0.200180      0.208368
H      7.64558     10.62451     15.10445         0.316051     -0.029172     -0.060465
H     13.33282     10.62451      5.87395        -0.885741      0.218190      0.219701
H     13.33282     10.35389     15.10445        -0.281504     -0.028767     -0.061414
H      5.87395      7.64558     10.35389         0.094023      0.419724     -0.013841
H     15.10445      7.64558     10.62451        -0.041808      0.440335     -0.028085
H      5.87395     13.33282     10.62451        -0.019296     -0.969417      0.078307
H     15.10445     13.33282     10.35389        -0.083489     -0.325463      0.002500
H      5.87395     10.35389      7.64558         0.319555      0.061782      0.369770
H     15.10445     10.62451      7.64558        -0.121078     -0.159883      0.666487
H      5.87395     10.62451     13.33282        -0.062132      0.450669     -0.597142
H     15.10445     10.35389     13.33282         0.224321     -0.635515     -0.870605
H     10.35389      7.64558      5.87395        -0.020209      0.500709      0.345399
H     10.62451      7.64558     15.10445         0.338275      0.791384     -0.002805
H     10.62451     13.33282      5.87395         0.151620     -0.568908      0.202468
H     10.35389     13.33282     15.10445         0.036235     -0.288764     -0.166812
H      7.64558      5.87395     10.35389         0.370953      0.114870      0.063403
H      7.64558     15.10445     10.62451         0.386837     -0.127554      0.180015
H     13.33282      5.87395     10.62451        -0.306579      0.136956     -0.013656
H     13.33282     15.10445     10.35389        -0.657562     -0.106865      0.137954
H     12.45634     12.45634     19.01126         0.258964      0.272190     -0.226479
H     19.01126     19.01126     19.01126        -0.247797     -0.267459     -0.244313
H     19.01126     12.45634     12.45634        -0.249118      0.271524      0.236999
H     12.45634     19.01126     12.45634         0.289784     -0.235049      0.235415
C     10.35284      5.61067      6.59456         0.403296     -0.422171     -1.361090
C     10.62556     15.36773      6.59456        -0.170921      0.610750     -0.662553
C     10.62556      5.61067     14.38384         0.365564     -0.276146      0.773927
C     10.35284     15.36773     14.38384        -0.205135      0.214925      1.019201
C      6.59456     10.35284      5.61067        -1.391709      0.031081     -0.226661
C      6.59456     10.62556     15.36773        -0.669436      0.064944      0.355842
C     14.38384     10.62556      5.61067         1.309107     -0.186055     -0.629397
C     14.38384     10.35284     15.36773         0.317429     -0.130886      0.349492
C      5.61067      6.59456     10.35284        -0.274033     -0.671209     -0.029783
C     15.36773      6.59456     10.62556         0.409217     -0.861985      0.027624
C      5.61067     14.38384     10.62556        -0.146773      1.195584     -0.220164
C     15.36773     14.38384     10.35284         0.504903      0.703785     -0.037020
C      5.61067     10.35284      6.59456        -0.374341     -0.102783     -0.784769
C     15.36773     10.62556      6.59456         0.402171      0.108061     -0.682959
C      5.61067     10.62556     14.38384        -0.412581     -0.162294      1.217330
C     15.36773     10.35284     14.38384         0.236049      0.224461      1.414853
C     10.35284      6.59456      5.61067        -0.069602     -0.746253     -0.547747
C     10.62556      6.59456     15.36773        -0.143105     -0.984416      0.376007
C     10.62556     14.38384      5.61067        -0.494009      0.379545     -0.739386
C     10.35284     14.38384     15.36773        -0.175390      0.749460      0.499063
C      6.59456      5.61067     10.35284        -0.561371     -0.334060      0.003650
C      6.59456     15.36773     10.62556        -0.362033      0.447473      0.065298
C     14.38384      5.61067     10.62556         0.433122     -0.312342      0.008468
C     14.38384     15.36773     10.35284         1.132202      0.490224     -0.078061
C     10.40319      3.19606      7.29314        -0.006985      0.772072     -0.334532
C     10.35913      4.25547      6.23373         0.022047     -0.380803      0.290897
C      0.08601      7.29314      7.29314        -0.018638     -0.378999     -0.506925
C      0.13007      6.23373      6.23373        -0.047261      0.883711      0.093969
C      0.08601      3.19606      3.19606        -0.007319      0.694946      0.260410
C      0.13007      4.25547      4.25547         0.045525     -0.265844     -0.547792
C     10.40319      7.29314      3.19606        -0.064031     -1.113576      0.618939
C     10.35913      6.23373      4.25547        -0.046790      0.346211     -0.201066
C      7.29314     10.40319      3.19606        -1.092198     -0.054727      0.201537
C      6.23373     10.35913      4.25547         0.377901      0.101541     -0.518802
C      7.29314      0.08601      7.29314        -0.474933      0.029352     -0.446225
C      6.23373      0.13007      6.23373         0.181054      0.122834      0.121313
C      3.19606      0.08601      3.19606         0.698094      0.023152      0.173024
C      4.25547      0.13007      4.25547        -0.172527     -0.050529     -0.364426
C      3.19606     10.40319      7.29314         0.364634     -0.026187     -0.951425
C      4.25547     10.35913      6.23373        -0.128298     -0.055200      0.114417
C      3.19606      7.29314     10.40319         0.616718     -0.400194      0.002659
C      4.25547      6.23373     10.35913        -0.115421      0.177238      0.011405
C      7.29314      7.29314      0.08601        -0.429062     -0.296305     -0.014982
C      6.23373      6.23373      0.13007         0.151954      0.154442     -0.063371
C      3.19606      3.19606      0.08601         0.293978      0.492609     -0.024891
C      4.25547      4.25547      0.13007        -0.405229     -0.240606     -0.031353
C      7.29314      3.19606     10.40319        -0.284261      0.596079     -0.009952
C      6.23373      4.25547     10.35913         0.015704     -0.092691      0.014580
O     10.43466      3.58206      8.50569        -0.026543      0.076244      0.305122
O     10.54374     17.39634      8.50569         0.064321     -0.123180      0.593841
O     10.54374      3.58206     12.47271         0.029297      0.102085     -0.398838
O     10.43466     17.39634     12.47271         0.094462     -0.062871     -0.432647
O      8.50569     10.43466      3.58206         0.734175     -0.072308      0.016086
O      8.50569     10.54374     17.39634         0.533102      0.061642     -0.106123
O     12.47271     10.54374      3.58206        -0.653260      0.112578      0.209576
O     12.47271     10.43466     17.39634        -0.279981      0.004674      0.034695
O      3.58206      8.50569     10.43466         0.034741      0.445729     -0.062770
O     17.39634      8.50569     10.54374        -0.053055      0.446264      0.056542
O      3.58206     12.47271     10.54374         0.104633     -0.588645      0.004141
O     17.39634     12.47271     10.43466        -0.179919     -0.741709     -0.049552
O      3.58206     10.43466      8.50569         0.210640     -0.061038      0.809282
O     17.39634     10.54374      8.50569        -0.072484      0.072392      0.492868
O      3.58206     10.54374     12.47271        -0.001605     -0.005737     -0.264198
O     17.39634     10.43466     12.47271         0.035599     -0.010124     -0.233124
O     10.43466      8.50569      3.58206        -0.108088      0.532561     -0.100503
O     10.54374      8.50569     17.39634         0.058770      0.512128     -0.087184
O     10.54374     12.47271      3.58206         0.102753     -0.637449      0.129028
O     10.43466     12.47271     17.39634        -0.066420     -0.687967     -0.275318
O      8.50569      3.58206     10.43466         0.396857      0.022885     -0.046256
O      8.50569     17.39634     10.54374         0.641883     -0.154170      0.046211
O     12.47271      3.58206     10.54374        -0.517526      0.121332      0.028548
O     12.47271     17.39634     10.43466        -0.624784     -0.123699      0.041219
O     11.90042     11.90042     19.56718        -0.278643     -0.304414      0.222895
O     19.56718     19.56718     19.56718         0.309881      0.322759      0.297543
O     19.56718     11.90042     11.90042         0.283994     -0.325252     -0.235913
O     11.90042     19.56718     11.90042        -0.313970      0.229335     -0.201568
O      9.45224      1.03696      9.45224        -0.073416      0.086249     -0.081003
O      1.03696      9.45224      9.45224         0.100225     -0.107655     -0.062294
O      1.03696      1.03696      1.03696         0.079818      0.053779      0.097700
O      9.45224      9.45224      1.03696        -0.058419     -0.125832      0.135788
Zr     10.48920      2.52580     10.48920         0.044131     -0.093005      0.122217
Zr     10.48920     18.45260     10.48920        -0.183774      0.246765     -0.359731
Zr     10.48920     10.48920      2.52580         0.111644      0.358632     -0.343928
Zr     10.48920     10.48920     18.45260        -0.077861     -0.258958      0.234978
Zr      2.52580     10.48920     10.48920        -0.240082      0.132813      0.243810
Zr     18.45260     10.48920     10.48920         0.195701     -0.138414     -0.017840
Pd      9.36182     14.30262      9.31224        -0.006483      0.019081     -0.031752
Pd      8.58983     13.63578     13.05078         0.005991     -0.003976      0.017235
Pd     12.02495     14.40713      8.74406         0.005307     -0.008737      0.004012
Pd     12.75549     12.87719     10.67815        -0.039304     -0.028644      0.025034
Pd     12.12028      7.19315     12.67608         0.000754     -0.005764     -0.000797
Pd     11.16035     14.90222     11.45260        -0.018545      0.027789     -0.008224
Pd     10.03210     12.55660     11.08743        -0.019529      0.021521     -0.002984
Pd     13.48288     12.15666      7.98267        -0.002467      0.001350      0.017132
Pd     11.48076     11.54402      6.10919        -0.001034      0.009443      0.011178
Pd      7.94271      8.37663      7.52403        -0.001671     -0.024136     -0.005519
Pd      8.72117     11.75760      6.84520         0.003703      0.004603      0.021632
Pd     10.31960      9.45473      8.15173        -0.020101      0.004605      0.016675
Pd      8.49721     14.46458      6.79029        -0.009569      0.001147     -0.014367
Pd     12.39616      9.02052      6.57345        -0.011282      0.024634      0.026664
Pd      9.71875      9.60988      5.57350         0.008682      0.006481      0.004143
Pd      6.81259      9.45081     12.13677         0.006336     -0.000728      0.012703
Pd     12.17923      6.74263      7.95307         0.006698     -0.000614     -0.000652
Pd      5.91555     10.48344      9.68921        -0.012685     -0.004832      0.003905
Pd      7.55102      7.23999     13.40544        -0.015756     -0.015056     -0.004739
Ir     11.73752      9.77787     13.06637        -0.019527     -0.018036      0.013530
Ir     13.55336      9.05660     11.47688        -0.004156      0.018504      0.006939
Ir      9.42669      8.86225     14.00965        -0.019710     -0.015973      0.017255
Ir     10.50158     11.02617     14.87666        -0.006928     -0.037708      0.065737
Ir      7.26823     12.01536     11.34012        -0.020329      0.013518      0.016762
Ir     14.65432     10.91008     10.14934        -0.028452      0.016320      0.043201
Ir     12.16742     10.56677      9.67463         0.008367      0.019473     -0.023535
Ir      8.73899     10.99304     12.98764         0.043260      0.045973      0.012069
Ir     10.10864      9.91964     11.17515        -0.000619      0.004351     -0.038493
Ir     13.73948     11.42002     12.48547        -0.023049     -0.000978      0.031156
Ir     11.59534     12.35777     13.08516        -0.092393     -0.012993     -0.005480
Ir      8.49911     11.10073      9.33711         0.006405      0.001520     -0.027591
Ir     11.59393      8.02761     10.14288        -0.004396     -0.004505      0.009163
Ir      7.21669     13.03233      8.65691         0.024344      0.020347      0.003107
Ir      9.54873      6.96190      9.23925         0.004566      0.021154      0.028240
Ir      8.05488      8.76616     10.05812         0.016781     -0.015183     -0.020770
Ir     10.72375     12.12388      8.50707         0.007785     -0.013955     -0.021729
Ir      9.51438      7.57468     11.75687         0.017174      0.005081     -0.034838
Ir     13.67128      8.79143      8.84293         0.023115      0.003660      0.027835
