152
# total energy = -1060.48641360 eVH     10.35389      5.87395      7.64558        -0.208812      0.143330      0.992411
H     10.62451     15.10445      7.64558         0.325416     -0.094192      0.799169
H     10.62451      5.87395     13.33282        -0.285515      0.087171     -0.706425
H     10.35389     15.10445     13.33282         0.155794     -0.282875     -0.746841
H      7.64558     10.35389      5.87395         0.844497     -0.203340      0.219493
H      7.64558     10.62451     15.10445         0.247453      0.036605     -0.060176
H     13.33282     10.62451      5.87395        -0.750512      0.049788      0.146190
H     13.33282     10.35389     15.10445        -0.310006     -0.097551     -0.030108
H      5.87395      7.64558     10.35389         0.101304      0.417914      0.006195
H     15.10445      7.64558     10.62451        -0.102475      0.675943      0.233761
H      5.87395     13.33282     10.62451         0.007178     -0.900503      0.099402
H     15.10445     13.33282     10.35389        -0.205601     -0.394435      0.030561
H      5.87395     10.35389      7.64558         0.283133      0.053674      0.362204
H     15.10445     10.62451      7.64558        -0.140381     -0.141952      0.571022
H      5.87395     10.62451     13.33282        -0.040096      0.400305     -0.700621
H     15.10445     10.35389     13.33282         0.179995     -0.446887     -0.917126
H     10.35389      7.64558      5.87395         0.011018      0.502732      0.352251
H     10.62451      7.64558     15.10445         0.231958      0.657874     -0.108484
H     10.62451     13.33282      5.87395         0.048277     -0.557823      0.209505
H     10.35389     13.33282     15.10445         0.063995     -0.350904     -0.122559
H      7.64558      5.87395     10.35389         0.424677      0.137298      0.056809
H      7.64558     15.10445     10.62451         0.389387     -0.130384      0.210555
H     13.33282      5.87395     10.62451        -0.307823      0.120247     -0.014952
H     13.33282     15.10445     10.35389        -0.640874     -0.185585      0.214946
H     12.45634     12.45634     19.01126         0.260196      0.267657     -0.223503
H     19.01126     19.01126     19.01126        -0.249035     -0.270163     -0.236586
H     19.01126     12.45634     12.45634        -0.241571      0.267759      0.242917
H     12.45634     19.01126     12.45634         0.294718     -0.224363      0.237271
C     10.35284      5.61067      6.59456         0.386979     -0.309651     -1.177279
C     10.62556     15.36773      6.59456        -0.250647      0.641748     -0.548615
C     10.62556      5.61067     14.38384         0.336855     -0.282045      0.746867
C     10.35284     15.36773     14.38384        -0.201496      0.339751      0.915354
C      6.59456     10.35284      5.61067        -1.185274      0.000690     -0.209096
C      6.59456     10.62556     15.36773        -0.662577      0.060968      0.372887
C     14.38384     10.62556      5.61067         1.341295     -0.115863     -0.610863
C     14.38384     10.35284     15.36773         0.320773     -0.127754      0.422738
C      5.61067      6.59456     10.35284        -0.276633     -0.610092     -0.008180
C     15.36773      6.59456     10.62556         0.350157     -0.924960     -0.188225
C      5.61067     14.38384     10.62556        -0.201375      1.029544     -0.286781
C     15.36773     14.38384     10.35284         0.453997      0.818254     -0.088058
C      5.61067     10.35284      6.59456        -0.276940     -0.110725     -0.549781
C     15.36773     10.62556      6.59456         0.272354      0.127141     -0.497934
C      5.61067     10.62556     14.38384        -0.295553     -0.148224      1.219807
C     15.36773     10.35284     14.38384         0.168839      0.146057      1.238268
C     10.35284      6.59456      5.61067        -0.034705     -0.659845     -0.419332
C     10.62556      6.59456     15.36773        -0.037048     -0.789118      0.376292
C     10.62556     14.38384      5.61067        -0.456721      0.403716     -0.770209
C     10.35284     14.38384     15.36773        -0.165509      0.663894      0.490777
C      6.59456      5.61067     10.35284        -0.562993     -0.327123      0.040652
C      6.59456     15.36773     10.62556        -0.269085      0.502281      0.087866
C     14.38384      5.61067     10.62556         0.379407     -0.343363      0.066881
C     14.38384     15.36773     10.35284         1.064496      0.363183     -0.110793
C     10.40319      3.19606      7.29314        -0.012146      0.891005     -0.366342
C     10.35913      4.25547      6.23373         0.049168     -0.390746      0.286804
C      0.08601      7.29314      7.29314        -0.014603     -0.521767     -0.492391
C      0.13007      6.23373      6.23373        -0.083732      0.801276      0.045917
C      0.08601      3.19606      3.19606        -0.009247      0.628970      0.270561
C      0.13007      4.25547      4.25547         0.071901     -0.236826     -0.614099
C     10.40319      7.29314      3.19606        -0.043406     -1.071358      0.795180
C     10.35913      6.23373      4.25547        -0.033277      0.353005     -0.228280
C      7.29314     10.40319      3.19606        -0.982262     -0.053607      0.295156
C      6.23373     10.35913      4.25547         0.380596      0.108310     -0.522356
C      7.29314      0.08601      7.29314        -0.767318      0.019434     -0.379181
C      6.23373      0.13007      6.23373         0.172934      0.083918      0.123276
C      3.19606      0.08601      3.19606         0.608194      0.007743      0.182165
C      4.25547      0.13007      4.25547        -0.208956     -0.087238     -0.267857
C      3.19606     10.40319      7.29314         0.498996     -0.035963     -0.965588
C      4.25547     10.35913      6.23373        -0.145156     -0.010711      0.164534
C      3.19606      7.29314     10.40319         0.679573     -0.419920      0.007432
C      4.25547      6.23373     10.35913        -0.114614      0.173173      0.000199
C      7.29314      7.29314      0.08601        -0.397723     -0.303042     -0.023119
C      6.23373      6.23373      0.13007         0.230796      0.125247     -0.147243
C      3.19606      3.19606      0.08601         0.322787      0.544749     -0.022864
C      4.25547      4.25547      0.13007        -0.436255     -0.292318     -0.003619
C      7.29314      3.19606     10.40319        -0.277138      0.630131      0.001649
C      6.23373      4.25547     10.35913         0.018191     -0.169357      0.021609
O     10.43466      3.58206      8.50569        -0.035977      0.042714      0.248406
O     10.54374     17.39634      8.50569         0.062446     -0.067232      0.496876
O     10.54374      3.58206     12.47271         0.032461      0.117325     -0.439730
O     10.43466     17.39634     12.47271         0.076511     -0.048242     -0.499663
O      8.50569     10.43466      3.58206         0.672199     -0.082337      0.055566
O      8.50569     10.54374     17.39634         0.768283      0.081936     -0.118788
O     12.47271     10.54374      3.58206        -0.592936      0.116855      0.201846
O     12.47271     10.43466     17.39634        -0.356851     -0.000495      0.034354
O      3.58206      8.50569     10.43466         0.019151      0.443288     -0.077307
O     17.39634      8.50569     10.54374        -0.091348      0.442966      0.043965
O      3.58206     12.47271     10.54374         0.130428     -0.610266     -0.004610
O     17.39634     12.47271     10.43466        -0.236439     -0.742327     -0.010051
O      3.58206     10.43466      8.50569         0.174551     -0.044031      0.800805
O     17.39634     10.54374      8.50569         0.000771      0.036876      0.323786
O      3.58206     10.54374     12.47271         0.004223      0.005524     -0.296886
O     17.39634     10.43466     12.47271        -0.027863      0.002274     -0.338799
O     10.43466      8.50569      3.58206        -0.106381      0.549970     -0.071254
O     10.54374      8.50569     17.39634         0.054071      0.604345     -0.078996
O     10.54374     12.47271      3.58206         0.096847     -0.575056      0.110226
O     10.43466     12.47271     17.39634        -0.053204     -0.826194     -0.301657
O      8.50569      3.58206     10.43466         0.368800      0.020766     -0.062502
O      8.50569     17.39634     10.54374         0.578235     -0.137419      0.054579
O     12.47271      3.58206     10.54374        -0.503811      0.123331      0.028186
O     12.47271     17.39634     10.43466        -0.615758     -0.094060      0.049422
O     11.90042     11.90042     19.56718        -0.272788     -0.280187      0.222959
O     19.56718     19.56718     19.56718         0.295640      0.314934      0.288019
O     19.56718     11.90042     11.90042         0.271477     -0.311930     -0.252928
O     11.90042     19.56718     11.90042        -0.314902      0.211850     -0.207087
O      9.45224      1.03696      9.45224        -0.119211      0.143072     -0.045330
O      1.03696      9.45224      9.45224         0.147251     -0.140631     -0.051224
O      1.03696      1.03696      1.03696         0.077442      0.086222      0.080487
O      9.45224      9.45224      1.03696        -0.089565     -0.127810      0.138234
Zr     10.48920      2.52580     10.48920         0.043224     -0.166322      0.167852
Zr     10.48920     18.45260     10.48920        -0.179499      0.228135     -0.387706
Zr     10.48920     10.48920      2.52580         0.130441      0.373698     -0.264607
Zr     10.48920     10.48920     18.45260        -0.011117     -0.260376      0.308668
Zr      2.52580     10.48920     10.48920        -0.310214      0.089903      0.259225
Zr     18.45260     10.48920     10.48920         0.190228     -0.154352     -0.033926
Pd      9.31267     14.39713      9.17887         0.002202      0.017446      0.043434
Pd      8.56812     13.71284     13.10065        -0.010863     -0.113366      0.033697
Pd     12.02743     14.35627      8.86445        -0.060087      0.130328     -0.134670
Pd     12.54139     12.82427     10.86542         0.010243     -0.174594      0.142434
Pd     12.09530      7.13599     12.51928        -0.034980     -0.091083      0.080210
Pd     11.02567     15.10118     11.32379        -0.020156     -0.012261      0.033500
Pd      9.89459     12.73165     11.00617        -0.046971      0.099836      0.204355
Pd     13.57138     12.27930      8.05566        -0.028959     -0.029246      0.084270
Pd     11.55128     11.65835      6.16395         0.034787      0.106203      0.081859
Pd      7.86123      8.17289      7.47542        -0.003893      0.047122      0.107195
Pd      8.72990     11.79766      6.83998        -0.028754      0.041425     -0.051578
Pd     10.05531      9.55719      8.22336        -0.058699      0.026624      0.041468
Pd      8.48338     14.50670      6.67893        -0.033184     -0.017059     -0.092310
Pd     12.30147      9.26871      6.99943         0.095063     -0.167474      0.012763
Pd      9.84017      9.64851      5.60225         0.043644      0.004809     -0.093840
Pd      6.93931      9.42471     12.24227        -0.076664      0.008870      0.015128
Pd     12.28567      6.73291      7.88884        -0.017255      0.022675      0.062313
Pd      5.85974     10.46815      9.84062         0.003522      0.034042     -0.011500
Pd      7.53734      7.02167     13.24310        -0.032142     -0.048027      0.017479
Ir     11.50016      9.66991     13.11831        -0.058106      0.046197     -0.058360
Ir     13.36247      9.18703     11.50935         0.207667      0.147959     -0.106419
Ir      9.20106      8.81466     14.01761         0.075609      0.067897     -0.131592
Ir     10.37319     10.77010     15.15507        -0.014417     -0.089541      0.099452
Ir      7.26262     12.00029     11.44947         0.085679     -0.069215      0.119260
Ir     14.59587     11.08801     10.42994        -0.188198     -0.100860      0.009307
Ir     12.28154     10.51469      9.50646         0.127843      0.138286     -0.079311
Ir      8.91417     11.08421     12.99728        -0.039872     -0.077280     -0.218438
Ir     10.09443     10.00184     10.97375        -0.161124     -0.031339      0.157944
Ir     13.48583     11.39716     12.74733        -0.124301      0.046535     -0.136151
Ir     11.21386     12.21049     13.20098         0.104029      0.011589     -0.097060
Ir      8.37155     11.25982      9.33074        -0.141950     -0.096405      0.106613
Ir     11.54048      8.02992     10.02955        -0.029912     -0.119458     -0.129403
Ir      7.13084     13.15510      8.55338        -0.008160      0.059199     -0.010205
Ir      9.46609      6.97466      9.23905        -0.007381      0.125433      0.026921
Ir      7.99068      8.84568     10.00570         0.098820     -0.007968     -0.194509
Ir     10.71793     12.13402      8.55291         0.061308     -0.086334     -0.070866
Ir      9.51511      7.68658     11.73208         0.007158      0.134394     -0.010958
Ir     13.86074      8.56415      9.06676        -0.100557     -0.011987     -0.014910
