152
# total energy = -1005.95381214 eVH     10.35389      5.87395      7.64558         0.198993      0.056424      0.601368
H     10.62451     15.10445      7.64558        -0.102908     -0.152168      0.527527
H     10.62451      5.87395     13.33282         0.491763      0.122319     -0.602563
H     10.35389     15.10445     13.33282         0.060897     -0.184662     -0.526411
H      7.64558     10.35389      5.87395         0.363631      0.030068      0.172743
H      7.64558     10.62451     15.10445         0.684257      0.480337     -0.043928
H     13.33282     10.62451      5.87395        -0.502357      0.387919      0.085605
H     13.33282     10.35389     15.10445        -0.790804     -0.077946     -0.009302
H      5.87395      7.64558     10.35389         0.274955      1.018331     -0.066386
H     15.10445      7.64558     10.62451        -0.101260      0.484009      0.279895
H      5.87395     13.33282     10.62451         0.152569     -0.692452     -0.172284
H     15.10445     13.33282     10.35389        -0.014265     -1.040801     -0.305875
H      5.87395     10.35389      7.64558         0.233053      0.040200      0.498696
H     15.10445     10.62451      7.64558        -0.121929      0.426961      0.789160
H      5.87395     10.62451     13.33282         0.150050      0.353512     -0.691549
H     15.10445     10.35389     13.33282        -0.054011     -0.056515     -0.691299
H     10.35389      7.64558      5.87395         0.324265      1.093366      0.024107
H     10.62451      7.64558     15.10445         0.526719      0.532355     -0.116988
H     10.62451     13.33282      5.87395        -0.405473     -0.822060      0.211760
H     10.35389     13.33282     15.10445        -0.041538     -0.439019     -0.227544
H      7.64558      5.87395     10.35389         0.862486      0.069853     -0.254661
H      7.64558     15.10445     10.62451         0.829261     -0.200429     -0.019461
H     13.33282      5.87395     10.62451        -0.780053      0.189163      0.588699
H     13.33282     15.10445     10.35389        -0.424558     -0.105639     -0.127388
H     12.45634     12.45634     19.01126         0.237767      0.268578     -0.239807
H     19.01126     19.01126     19.01126        -0.260871     -0.241411     -0.261903
H     19.01126     12.45634     12.45634        -0.268113      0.266971      0.221402
H     12.45634     19.01126     12.45634         0.233355     -0.260135      0.272726
C     10.35284      5.61067      6.59456        -0.391617     -0.681211      0.030616
C     10.62556     15.36773      6.59456         0.068930      0.368837     -0.301653
C     10.62556      5.61067     14.38384        -0.325172     -0.395284     -0.259346
C     10.35284     15.36773     14.38384        -0.002457      0.296359      0.525936
C      6.59456     10.35284      5.61067        -0.342482     -0.002991     -0.264877
C      6.59456     10.62556     15.36773        -0.264649     -0.211540      0.790229
C     14.38384     10.62556      5.61067        -0.223641     -0.403728     -0.524809
C     14.38384     10.35284     15.36773         0.956586     -0.071362      0.225852
C      5.61067      6.59456     10.35284        -0.550120     -0.044542     -0.210139
C     15.36773      6.59456     10.62556         0.554885     -0.002614     -0.247522
C      5.61067     14.38384     10.62556        -0.311301      0.984015      0.077065
C     15.36773     14.38384     10.35284         0.275671      1.041712      0.055698
C      5.61067     10.35284      6.59456        -0.215013     -0.073789     -0.616079
C     15.36773     10.62556      6.59456         0.426675     -0.254802      0.118200
C      5.61067     10.62556     14.38384        -0.667094     -0.347058     -0.122460
C     15.36773     10.35284     14.38384         0.390675     -0.060009      1.023560
C     10.35284      6.59456      5.61067        -0.227229     -0.440043     -0.603888
C     10.62556      6.59456     15.36773        -0.258143      0.152580      0.447746
C     10.62556     14.38384      5.61067         0.212586      1.044914     -0.337040
C     10.35284     14.38384     15.36773         0.005509      0.587316      0.396165
C      6.59456      5.61067     10.35284        -0.060808     -0.919166      0.280722
C      6.59456     15.36773     10.62556        -1.006724      0.269304      0.085610
C     14.38384      5.61067     10.62556         0.456642     -0.538261     -0.376416
C     14.38384     15.36773     10.35284         0.205530      0.444918     -0.085447
C     10.40319      3.19606      7.29314         0.015942      0.674785     -0.490468
C     10.35913      4.25547      6.23373         0.087488     -0.632509      0.030320
C      0.08601      7.29314      7.29314        -0.042991     -0.407725     -0.324255
C      0.13007      6.23373      6.23373        -0.028885      0.094586      0.569694
C      0.08601      3.19606      3.19606        -0.001094      1.315270      0.289709
C      0.13007      4.25547      4.25547         0.051435     -0.768404     -0.177435
C     10.40319      7.29314      3.19606         0.011384     -0.311226      0.300563
C     10.35913      6.23373      4.25547         0.022041      0.024321     -0.773896
C      7.29314     10.40319      3.19606        -0.278034      0.021075      0.563649
C      6.23373     10.35913      4.25547         0.170773      0.056451     -0.073664
C      7.29314      0.08601      7.29314        -0.512392     -0.066474     -0.374249
C      6.23373      0.13007      6.23373         0.686984     -0.068081      0.468307
C      3.19606      0.08601      3.19606         0.837090     -0.028250      0.588436
C      4.25547      0.13007      4.25547        -0.596572     -0.084718     -0.535883
C      3.19606     10.40319      7.29314         0.467707     -0.008449     -0.736464
C      4.25547     10.35913      6.23373        -0.299958      0.073396      0.191362
C      3.19606      7.29314     10.40319         0.298224     -1.294045      0.044941
C      4.25547      6.23373     10.35913        -0.924322      0.099548      0.129493
C      7.29314      7.29314      0.08601        -0.411010     -0.380429     -0.023980
C      6.23373      6.23373      0.13007         0.452235      0.226092     -0.008456
C      3.19606      3.19606      0.08601         0.483514      0.374682     -0.042290
C      4.25547      4.25547      0.13007        -0.152188     -0.645458     -0.035588
C      7.29314      3.19606     10.40319        -0.341109      0.449519      0.070581
C      6.23373      4.25547     10.35913         0.312435     -0.683427      0.148381
O     10.43466      3.58206      8.50569        -0.013472      0.108387      0.507803
O     10.54374     17.39634      8.50569         0.033975     -0.175137      0.496977
O     10.54374      3.58206     12.47271         0.046702     -0.100540     -0.178725
O     10.43466     17.39634     12.47271        -0.039055     -0.184123     -0.521164
O      8.50569     10.43466      3.58206         0.279590     -0.013214      0.017324
O      8.50569     10.54374     17.39634         0.625157      0.035686     -0.145159
O     12.47271     10.54374      3.58206        -0.770050      0.090937      0.098010
O     12.47271     10.43466     17.39634        -0.438553      0.022356     -0.107028
O      3.58206      8.50569     10.43466         0.153389      1.042637     -0.030309
O     17.39634      8.50569     10.54374        -0.161017      0.544582      0.076319
O      3.58206     12.47271     10.54374         0.087239     -0.374323      0.052386
O     17.39634     12.47271     10.43466        -0.154841     -0.543567     -0.023600
O      3.58206     10.43466      8.50569         0.081974     -0.069878      0.587671
O     17.39634     10.54374      8.50569        -0.109903      0.068664      0.526325
O      3.58206     10.54374     12.47271         0.014792      0.040738     -0.505480
O     17.39634     10.43466     12.47271        -0.229832     -0.040035     -0.627549
O     10.43466      8.50569      3.58206        -0.037878      0.444323      0.140164
O     10.54374      8.50569     17.39634         0.049567      0.536201     -0.156975
O     10.54374     12.47271      3.58206         0.019975     -1.042396      0.184952
O     10.43466     12.47271     17.39634         0.037636     -0.709520     -0.175193
O      8.50569      3.58206     10.43466         0.525802      0.149243     -0.056475
O      8.50569     17.39634     10.54374         0.486982     -0.194980      0.014735
O     12.47271      3.58206     10.54374        -0.624232      0.221784      0.006275
O     12.47271     17.39634     10.43466        -0.235874      0.061997     -0.047678
O     11.90042     11.90042     19.56718        -0.243097     -0.286445      0.248751
O     19.56718     19.56718     19.56718         0.309675      0.296400      0.302823
O     19.56718     11.90042     11.90042         0.297563     -0.264033     -0.234031
O     11.90042     19.56718     11.90042        -0.240268      0.294666     -0.319091
O      9.45224      1.03696      9.45224        -0.016731      0.091178     -0.073588
O      1.03696      9.45224      9.45224         0.090590     -0.089574     -0.131664
O      1.03696      1.03696      1.03696         0.093883      0.188911      0.054692
O      9.45224      9.45224      1.03696        -0.105657     -0.105774      0.037528
Zr     10.48920      2.52580     10.48920        -0.131021     -0.287743     -0.027720
Zr     10.48920     18.45260     10.48920        -0.066803      0.211426      0.062711
Zr     10.48920     10.48920      2.52580        -0.036888     -0.400691     -0.270921
Zr     10.48920     10.48920     18.45260        -0.264975     -0.109405      0.319192
Zr      2.52580     10.48920     10.48920        -0.383274      0.228439      0.247607
Zr     18.45260     10.48920     10.48920         0.231665      0.002136     -0.214107
Pd     13.58051      8.92149      9.27026         0.002878      0.005768     -0.008428
Pd      5.63795      9.87940     10.17543         0.001027     -0.002634     -0.017311
Pd      6.78656     11.85601     11.67883        -0.002691     -0.000660     -0.000439
Pd     12.13123     13.03338      7.32840        -0.012630      0.000761      0.012143
Pd     11.91593      7.76755      7.42302        -0.001439     -0.006035      0.002726
Pd      8.29813      6.96159      6.58780         0.003357     -0.018812      0.003678
Pd     10.75587     11.18988      5.62307        -0.012083      0.001628      0.000562
Pd     14.44207      8.55033      6.78238        -0.004623     -0.000039     -0.005344
Pd      9.69159     11.76405      8.06534        -0.002549     -0.006952      0.003780
Pd      6.78175      6.80771     12.30439         0.008019     -0.000276     -0.000960
Pd      6.45421      7.82383      8.23281         0.009305      0.022502     -0.019253
Pd      6.52705      8.50452     14.32994         0.020306      0.006513     -0.004803
Pd     11.49991      6.50279      9.83580         0.001627      0.006748      0.013598
Pd      9.58119      9.24883      7.11191        -0.002355     -0.009086     -0.003301
Pd      9.00093     14.00397      9.29693        -0.001958     -0.008383      0.007218
Pd      9.52728      7.35730     11.72897        -0.008805      0.004405      0.001124
Pd     10.57308      8.98335      9.67429         0.006185      0.003233     -0.002285
Pd      9.32505     11.51871     10.64580         0.001804     -0.005434      0.006601
Pd      8.90832      7.02680      9.15484         0.000163      0.006278      0.002623
Pd      8.55864      6.58932     14.23730         0.000053     -0.002412      0.005747
Pd      7.68864      9.33088     11.93765        -0.001265      0.005624     -0.000572
Pd     11.99621     10.41028      7.77581        -0.001991     -0.002954     -0.009870
Pd      7.14342     12.02597      9.02705        -0.000981      0.000405      0.002538
Pd      8.07911      9.58219      9.27651         0.007258      0.005442     -0.001103
Pd     14.02853      6.46647      8.49958         0.002333      0.000803      0.001658
Pd     12.49867      8.31474     11.59730         0.020522      0.010565     -0.002516
Pd      8.75937     11.59749     13.38600         0.002287     -0.015710      0.003205
Pd     13.91369     11.95192      8.97524        -0.002857     -0.001372     -0.004185
Pd     12.93382     10.64969     13.04916         0.006177      0.004087      0.001054
Pd     14.79259     10.42886     11.10027        -0.001173      0.002556     -0.002992
Pd     12.08947     10.86058     10.52290        -0.000304      0.005550     -0.001412
Pd     11.45447     13.30104      9.88132        -0.004509      0.006349      0.013472
Pd     13.60281     12.89862     11.63182        -0.003432      0.001874     -0.000561
Pd     11.11601     12.59674     12.49391        -0.001224     -0.005659      0.008159
Pd     10.94546     11.07913     14.79989         0.010381     -0.001271      0.005806
Pd     10.47680      9.77529     12.36889         0.007501     -0.008987      0.004862
Pd      9.07257      9.15764     14.41057         0.024279     -0.004660      0.019072
Pd      8.82961     13.84401     11.97444        -0.003148     -0.010277      0.007046
