152
# total energy = -1060.50813005 eVH     10.35389      5.87395      7.64558        -0.210771      0.142300      0.989971
H     10.62451     15.10445      7.64558         0.315645     -0.094310      0.802703
H     10.62451      5.87395     13.33282        -0.289079      0.086168     -0.709310
H     10.35389     15.10445     13.33282         0.154602     -0.282840     -0.746922
H      7.64558     10.35389      5.87395         0.845256     -0.205112      0.219025
H      7.64558     10.62451     15.10445         0.247557      0.036143     -0.059441
H     13.33282     10.62451      5.87395        -0.754638      0.052262      0.147406
H     13.33282     10.35389     15.10445        -0.309069     -0.095119     -0.030922
H      5.87395      7.64558     10.35389         0.101630      0.416621      0.006796
H     15.10445      7.64558     10.62451        -0.102492      0.669015      0.228590
H      5.87395     13.33282     10.62451         0.007632     -0.896719      0.101174
H     15.10445     13.33282     10.35389        -0.203339     -0.390198      0.030962
H      5.87395     10.35389      7.64558         0.283327      0.054071      0.362246
H     15.10445     10.62451      7.64558        -0.138498     -0.140909      0.570358
H      5.87395     10.62451     13.33282        -0.041374      0.403048     -0.701533
H     15.10445     10.35389     13.33282         0.176208     -0.441669     -0.908089
H     10.35389      7.64558      5.87395         0.010863      0.503250      0.352423
H     10.62451      7.64558     15.10445         0.230317      0.656712     -0.106840
H     10.62451     13.33282      5.87395         0.047281     -0.558692      0.209022
H     10.35389     13.33282     15.10445         0.064508     -0.352205     -0.123214
H      7.64558      5.87395     10.35389         0.423521      0.136879      0.057616
H      7.64558     15.10445     10.62451         0.389576     -0.130409      0.211098
H     13.33282      5.87395     10.62451        -0.309221      0.121675     -0.014085
H     13.33282     15.10445     10.35389        -0.639709     -0.187789      0.211168
H     12.45634     12.45634     19.01126         0.260306      0.267617     -0.223359
H     19.01126     19.01126     19.01126        -0.249202     -0.270036     -0.236461
H     19.01126     12.45634     12.45634        -0.241778      0.267841      0.242761
H     12.45634     19.01126     12.45634         0.294694     -0.224436      0.237177
C     10.35284      5.61067      6.59456         0.387413     -0.311610     -1.178913
C     10.62556     15.36773      6.59456        -0.251369      0.644039     -0.555609
C     10.62556      5.61067     14.38384         0.337146     -0.279909      0.749215
C     10.35284     15.36773     14.38384        -0.200380      0.339826      0.917932
C      6.59456     10.35284      5.61067        -1.186970      0.002677     -0.210175
C      6.59456     10.62556     15.36773        -0.658589      0.062327      0.370179
C     14.38384     10.62556      5.61067         1.340751     -0.117697     -0.611028
C     14.38384     10.35284     15.36773         0.320692     -0.127539      0.417959
C      5.61067      6.59456     10.35284        -0.276321     -0.605827     -0.008475
C     15.36773      6.59456     10.62556         0.350569     -0.921726     -0.183450
C      5.61067     14.38384     10.62556        -0.198329      1.023715     -0.284900
C     15.36773     14.38384     10.35284         0.451504      0.812209     -0.088674
C      5.61067     10.35284      6.59456        -0.279223     -0.110719     -0.552443
C     15.36773     10.62556      6.59456         0.274881      0.125181     -0.499982
C      5.61067     10.62556     14.38384        -0.296104     -0.148596      1.223675
C     15.36773     10.35284     14.38384         0.170873      0.143717      1.233214
C     10.35284      6.59456      5.61067        -0.035615     -0.663172     -0.419271
C     10.62556      6.59456     15.36773        -0.037375     -0.789122      0.374604
C     10.62556     14.38384      5.61067        -0.458343      0.405276     -0.772347
C     10.35284     14.38384     15.36773        -0.165580      0.660201      0.487679
C      6.59456      5.61067     10.35284        -0.560728     -0.325555      0.040538
C      6.59456     15.36773     10.62556        -0.270704      0.501474      0.087487
C     14.38384      5.61067     10.62556         0.381141     -0.342480      0.065178
C     14.38384     15.36773     10.35284         1.059039      0.362771     -0.109680
C     10.40319      3.19606      7.29314        -0.012058      0.890572     -0.366584
C     10.35913      4.25547      6.23373         0.048329     -0.388979      0.287610
C      0.08601      7.29314      7.29314        -0.014534     -0.522889     -0.495540
C      0.13007      6.23373      6.23373        -0.082240      0.804214      0.047970
C      0.08601      3.19606      3.19606        -0.009686      0.629640      0.270504
C      0.13007      4.25547      4.25547         0.071790     -0.237934     -0.613096
C     10.40319      7.29314      3.19606        -0.044008     -1.073230      0.793511
C     10.35913      6.23373      4.25547        -0.034143      0.352620     -0.227422
C      7.29314     10.40319      3.19606        -0.983643     -0.053653      0.293522
C      6.23373     10.35913      4.25547         0.377632      0.108186     -0.519872
C      7.29314      0.08601      7.29314        -0.765508      0.019230     -0.375691
C      6.23373      0.13007      6.23373         0.172451      0.083810      0.122435
C      3.19606      0.08601      3.19606         0.607404      0.007667      0.181950
C      4.25547      0.13007      4.25547        -0.209110     -0.087626     -0.268802
C      3.19606     10.40319      7.29314         0.498041     -0.035759     -0.965463
C      4.25547     10.35913      6.23373        -0.144427     -0.011814      0.163399
C      3.19606      7.29314     10.40319         0.679969     -0.420099      0.007466
C      4.25547      6.23373     10.35913        -0.113858      0.171980      0.000266
C      7.29314      7.29314      0.08601        -0.399969     -0.302750     -0.022649
C      6.23373      6.23373      0.13007         0.230028      0.124865     -0.146465
C      3.19606      3.19606      0.08601         0.323500      0.545445     -0.022604
C      4.25547      4.25547      0.13007        -0.436581     -0.291297     -0.004475
C      7.29314      3.19606     10.40319        -0.277468      0.624703      0.001759
C      6.23373      4.25547     10.35913         0.018765     -0.168136      0.021031
O     10.43466      3.58206      8.50569        -0.035793      0.042787      0.247019
O     10.54374     17.39634      8.50569         0.062298     -0.067670      0.499391
O     10.54374      3.58206     12.47271         0.032283      0.117146     -0.439289
O     10.43466     17.39634     12.47271         0.077604     -0.048491     -0.498988
O      8.50569     10.43466      3.58206         0.670495     -0.081588      0.053410
O      8.50569     10.54374     17.39634         0.767232      0.082986     -0.118905
O     12.47271     10.54374      3.58206        -0.591970      0.117874      0.202315
O     12.47271     10.43466     17.39634        -0.354095     -0.000834      0.036373
O      3.58206      8.50569     10.43466         0.019407      0.444493     -0.076984
O     17.39634      8.50569     10.54374        -0.090452      0.442765      0.044493
O      3.58206     12.47271     10.54374         0.130353     -0.611067     -0.004537
O     17.39634     12.47271     10.43466        -0.234819     -0.738939     -0.010146
O      3.58206     10.43466      8.50569         0.175587     -0.043922      0.802601
O     17.39634     10.54374      8.50569         0.001222      0.036605      0.321456
O      3.58206     10.54374     12.47271         0.004527      0.004927     -0.296871
O     17.39634     10.43466     12.47271        -0.027737      0.002459     -0.338242
O     10.43466      8.50569      3.58206        -0.105983      0.547747     -0.074292
O     10.54374      8.50569     17.39634         0.053892      0.603459     -0.078780
O     10.54374     12.47271      3.58206         0.097810     -0.575749      0.110611
O     10.43466     12.47271     17.39634        -0.052849     -0.828795     -0.302932
O      8.50569      3.58206     10.43466         0.371281      0.022665     -0.062520
O      8.50569     17.39634     10.54374         0.580701     -0.137894      0.054145
O     12.47271      3.58206     10.54374        -0.504600      0.123037      0.027845
O     12.47271     17.39634     10.43466        -0.617111     -0.095001      0.049697
O     11.90042     11.90042     19.56718        -0.272700     -0.280157      0.222937
O     19.56718     19.56718     19.56718         0.295986      0.314641      0.288189
O     19.56718     11.90042     11.90042         0.271883     -0.312230     -0.252600
O     11.90042     19.56718     11.90042        -0.314824      0.211726     -0.206915
O      9.45224      1.03696      9.45224        -0.119318      0.143344     -0.044715
O      1.03696      9.45224      9.45224         0.147657     -0.141336     -0.050052
O      1.03696      1.03696      1.03696         0.078361      0.086134      0.080035
O      9.45224      9.45224      1.03696        -0.089241     -0.128673      0.137780
Zr     10.48920      2.52580     10.48920         0.042251     -0.166806      0.168571
Zr     10.48920     18.45260     10.48920        -0.180133      0.230337     -0.387775
Zr     10.48920     10.48920      2.52580         0.129732      0.374786     -0.263778
Zr     10.48920     10.48920     18.45260        -0.011741     -0.260772      0.305426
Zr      2.52580     10.48920     10.48920        -0.312214      0.090867      0.258945
Zr     18.45260     10.48920     10.48920         0.189896     -0.152540     -0.034937
Pd      9.31389     14.39779      9.18156        -0.001672     -0.001102      0.025439
Pd      8.56918     13.70856     13.10239        -0.018916     -0.081753      0.061564
Pd     12.02597     14.35972      8.85893        -0.043859      0.073562     -0.074122
Pd     12.54250     12.82104     10.86804        -0.034961     -0.055036      0.022012
Pd     12.09453      7.13374     12.52416        -0.022662     -0.021692      0.035430
Pd     11.02645     15.09894     11.32626        -0.006055     -0.003607      0.025465
Pd      9.89476     12.73367     11.01099        -0.034667      0.073841      0.089563
Pd     13.56976     12.27627      8.05747        -0.010574      0.010475      0.059350
Pd     11.55131     11.65988      6.16416         0.037973      0.062093      0.060750
Pd      7.86330      8.17566      7.47965        -0.020139      0.034467      0.054779
Pd      8.72808     11.79800      6.83789        -0.022885      0.026674     -0.002389
Pd     10.05771      9.55644      8.22414        -0.016447      0.037029      0.004437
Pd      8.48309     14.50567      6.67682        -0.025191     -0.017837     -0.067404
Pd     12.30547      9.26190      6.99475         0.044344     -0.106298      0.005622
Pd      9.83937      9.64774      5.59934         0.054141      0.017256     -0.064940
Pd      6.93618      9.42621     12.24155        -0.062459     -0.025098     -0.016850
Pd     12.28451      6.73378      7.89140        -0.009057     -0.015093      0.033851
Pd      5.86097     10.47017      9.83856        -0.006910      0.025300     -0.007905
Pd      7.53603      7.02357     13.24631        -0.007171     -0.021643      0.009871
Ir     11.50120      9.67283     13.11593         0.029413     -0.006259     -0.065968
Ir     13.37064      9.18951     11.50699         0.027477      0.002720     -0.038604
Ir      9.20576      8.81832     14.01384         0.021516      0.007874     -0.069475
Ir     10.37430     10.76841     15.15636        -0.014424     -0.045764      0.036803
Ir      7.26600     11.99901     11.45100        -0.007267     -0.030052      0.064762
Ir     14.59062     11.08368     10.42817        -0.034204     -0.007846     -0.040523
Ir     12.28312     10.51901      9.50573         0.005294      0.038902     -0.047371
Ir      8.91323     11.08149     12.99076         0.013856     -0.054327     -0.076862
Ir     10.09002      9.99995     10.97925        -0.059438      0.013878      0.032923
Ir     13.48370     11.39850     12.74221        -0.036264      0.009394     -0.042680
Ir     11.21828     12.21194     13.19710         0.011416      0.008563     -0.023619
Ir      8.36961     11.25512      9.33322        -0.067922     -0.010786      0.030720
Ir     11.54187      8.02666     10.02834         0.012878     -0.030760     -0.031189
Ir      7.13268     13.15524      8.55546         0.005957      0.039819     -0.013306
Ir      9.46841      6.97755      9.24044        -0.006231      0.042493     -0.007406
Ir      7.99423      8.84426     10.00160         0.005427      0.017969     -0.089799
Ir     10.71907     12.13173      8.54933         0.000258     -0.030633     -0.000968
Ir      9.51561      7.68937     11.73276         0.000533      0.045867      0.003986
Ir     13.85693      8.56799      9.06361        -0.048797     -0.042297     -0.019724
