35
# total energy = -286.25761926 eVC      6.62268     10.18506      7.54798        -0.012704     -0.172221      0.002229
C      8.01037      9.80703      7.54214         0.062246      0.230884      0.005256
C      9.29929      5.59606      7.55700         0.010235     -0.035509     -0.006310
C      1.50342      5.33383      7.55886        -0.036359      0.036607     -0.011255
C      4.17934      0.74503      7.57655         0.022104      0.161137      0.001404
C      2.79208      1.12218      7.56797        -0.095147     -0.188141      0.004280
C      0.70635      4.14685      7.55878         0.165485      0.026925      0.006632
C      1.11238      2.76732      7.56076        -0.217074     -0.055861      0.002453
C      5.35004      1.56550      7.58276         0.038762     -0.005371     -0.007372
C      5.45210      9.36411      7.55479        -0.041242      0.039578     -0.002506
C     10.09619      6.78288      7.54667        -0.157951     -0.019454      0.006965
C      9.69055      8.16231      7.54173         0.190556      0.076540     -0.002725
C      0.75023      6.54722      7.55185         0.157309     -0.134877      0.000552
C      1.18157      7.92355      7.54616         0.062217      0.177313      0.006920
C     10.05226      4.38293      7.55660        -0.146908      0.129364     -0.003426
C      9.62088      3.00677      7.56051        -0.066336     -0.191369      0.005151
C      4.22380     10.09342      7.55032         0.150794     -0.178176     -0.000226
C      2.85666      9.63396      7.54507        -0.182245     -0.074788      0.001637
C      6.57798      0.83673      7.57604        -0.128793      0.160750     -0.000007
C      7.94536      1.29637      7.56913         0.178832      0.060723      0.008613
N      8.78409      0.21316      7.56566        -0.170273      0.036285     -0.004113
N      0.08164      8.73993      7.54307         0.027661     -0.160830      0.001378
N      8.43584      8.56168      7.54315        -0.114519     -0.143185     -0.000721
N      2.36654      2.36816      7.56224         0.142204      0.114168      0.004515
N      2.01772     10.71670      7.53853         0.178005     -0.023917      0.001916
N     10.72095      2.19021      7.55832        -0.047879      0.155683     -0.001364
N      2.47138      8.33568      7.54733         0.077316     -0.067449      0.000692
N      8.33079      2.59459      7.56722        -0.063335      0.066824     -0.002890
O      5.26578      2.85296      7.59325         0.007480      0.074554     -0.008209
O      5.53769      8.07725      7.56347        -0.022654     -0.099193     -0.003296
O      8.01051      5.65468      7.56591        -0.080996     -0.012976     -0.000052
O      2.79162      5.27454      7.56451         0.110964      0.024437     -0.001421
Pd      6.82904      4.06678      7.57965        -0.026614      0.023521     -0.003604
Pd      3.97365      6.86322      7.56355         0.027185     -0.030204     -0.006186
Pd      0.02533     10.73171      7.53856         0.001673     -0.001772      0.005091
