15
# total energy = -112.41950195 eVC      1.38588      0.00033     10.00000         0.006522     -0.024876      0.000000
C      5.34531      3.88837     10.00000        -0.006522      0.024876     -0.000000
C      6.03820     -2.68515     10.00000        -0.018760     -0.007430      0.000000
C      0.69299      6.57386     10.00000         0.018760      0.007430      0.000000
C      6.03868      2.68898     10.00000        -0.012748     -0.031950      0.000000
C      0.69251      1.19972     10.00000         0.012748      0.031950      0.000000
O      1.37786      2.38737     10.00000        -0.002544     -0.005746      0.000000
O      5.35333      1.50133     10.00000         0.002544      0.005746      0.000000
O      3.97438      3.88799     10.00000         0.007161     -0.001948      0.000000
O      2.75681      0.00072     10.00000        -0.007161      0.001948      0.000000
O      1.37829      5.38655     10.00000        -0.004378      0.004943      0.000000
O      5.35290     -1.49784     10.00000         0.004378     -0.004943      0.000000
Ir      3.36560      1.94435     10.00000         0.000000      0.000000      0.000000
Ir      3.36560     -1.94266     10.00000         0.000000      0.000000      0.000000
Ir     -0.00000      3.88701     10.00000         0.000000      0.000000      0.000000
