152
# total energy = -1060.08774539 eVH     10.35389      5.87395      7.64558        -0.279486      0.041448      1.127497
H     10.62451     15.10445      7.64558         0.082943     -0.087346      0.926099
H     10.62451      5.87395     13.33282        -0.258962      0.077583     -0.787940
H     10.35389     15.10445     13.33282         0.098014     -0.302006     -0.868502
H      7.64558     10.35389      5.87395         0.931569     -0.137178      0.188051
H      7.64558     10.62451     15.10445         0.327668     -0.035686     -0.072759
H     13.33282     10.62451      5.87395        -0.860733      0.196098      0.205198
H     13.33282     10.35389     15.10445        -0.278644     -0.013913     -0.068258
H      5.87395      7.64558     10.35389         0.087908      0.417211     -0.008921
H     15.10445      7.64558     10.62451        -0.004365      0.492171     -0.031284
H      5.87395     13.33282     10.62451        -0.014666     -0.960095      0.080668
H     15.10445     13.33282     10.35389        -0.086570     -0.320316      0.004202
H      5.87395     10.35389      7.64558         0.284251      0.111131      0.404471
H     15.10445     10.62451      7.64558        -0.123477     -0.171695      0.666244
H      5.87395     10.62451     13.33282        -0.082985      0.462950     -0.619749
H     15.10445     10.35389     13.33282         0.242405     -0.617404     -0.833846
H     10.35389      7.64558      5.87395        -0.040392      0.485559      0.335489
H     10.62451      7.64558     15.10445         0.264190      0.779874     -0.028510
H     10.62451     13.33282      5.87395         0.127286     -0.575372      0.208914
H     10.35389     13.33282     15.10445         0.039424     -0.287634     -0.145494
H      7.64558      5.87395     10.35389         0.347760      0.101326      0.032462
H      7.64558     15.10445     10.62451         0.379671     -0.118711      0.167863
H     13.33282      5.87395     10.62451        -0.315566      0.130936     -0.029567
H     13.33282     15.10445     10.35389        -0.653413     -0.128529      0.148386
H     12.45634     12.45634     19.01126         0.255943      0.271408     -0.228340
H     19.01126     19.01126     19.01126        -0.246644     -0.267853     -0.245355
H     19.01126     12.45634     12.45634        -0.250766      0.269912      0.235465
H     12.45634     19.01126     12.45634         0.290394     -0.235514      0.234748
C     10.35284      5.61067      6.59456         0.399883     -0.416510     -1.426457
C     10.62556     15.36773      6.59456        -0.155691      0.591491     -0.650019
C     10.62556      5.61067     14.38384         0.382152     -0.336155      0.831026
C     10.35284     15.36773     14.38384        -0.223934      0.226063      1.080039
C      6.59456     10.35284      5.61067        -1.376538      0.021880     -0.230052
C      6.59456     10.62556     15.36773        -0.644029      0.063454      0.364808
C     14.38384     10.62556      5.61067         1.308622     -0.168715     -0.633605
C     14.38384     10.35284     15.36773         0.355473     -0.124977      0.357435
C      5.61067      6.59456     10.35284        -0.286230     -0.651935     -0.022079
C     15.36773      6.59456     10.62556         0.420938     -0.958849      0.033268
C      5.61067     14.38384     10.62556        -0.138065      1.164864     -0.182506
C     15.36773     14.38384     10.35284         0.467873      0.654123     -0.027182
C      5.61067     10.35284      6.59456        -0.372031     -0.099366     -0.729718
C     15.36773     10.62556      6.59456         0.405599      0.117468     -0.728861
C      5.61067     10.62556     14.38384        -0.383368     -0.171477      1.231707
C     15.36773     10.35284     14.38384         0.262992      0.191266      1.457364
C     10.35284      6.59456      5.61067        -0.055379     -0.722708     -0.594743
C     10.62556      6.59456     15.36773        -0.112216     -0.899472      0.350525
C     10.62556     14.38384      5.61067        -0.475203      0.406976     -0.713176
C     10.35284     14.38384     15.36773        -0.158887      0.614632      0.423666
C      6.59456      5.61067     10.35284        -0.515964     -0.333488      0.023761
C      6.59456     15.36773     10.62556        -0.371074      0.446492      0.058799
C     14.38384      5.61067     10.62556         0.447739     -0.369427      0.001363
C     14.38384     15.36773     10.35284         1.119225      0.496336     -0.073273
C     10.40319      3.19606      7.29314        -0.001646      0.691613     -0.338875
C     10.35913      4.25547      6.23373         0.011258     -0.423601      0.289629
C      0.08601      7.29314      7.29314        -0.014183     -0.368844     -0.505647
C      0.13007      6.23373      6.23373        -0.067948      0.856394      0.066820
C      0.08601      3.19606      3.19606        -0.003269      0.682490      0.266014
C      0.13007      4.25547      4.25547         0.033328     -0.269952     -0.544377
C     10.40319      7.29314      3.19606        -0.066784     -1.151041      0.584155
C     10.35913      6.23373      4.25547        -0.039086      0.363920     -0.198926
C      7.29314     10.40319      3.19606        -1.083442     -0.056550      0.194806
C      6.23373     10.35913      4.25547         0.366617      0.086515     -0.541296
C      7.29314      0.08601      7.29314        -0.436510      0.033081     -0.517291
C      6.23373      0.13007      6.23373         0.183265      0.127478      0.127610
C      3.19606      0.08601      3.19606         0.693705      0.024465      0.166191
C      4.25547      0.13007      4.25547        -0.173464     -0.051424     -0.355904
C      3.19606     10.40319      7.29314         0.388762     -0.025999     -0.895944
C      4.25547     10.35913      6.23373        -0.152419     -0.076407      0.100406
C      3.19606      7.29314     10.40319         0.606675     -0.397787      0.002774
C      4.25547      6.23373     10.35913        -0.112792      0.183029      0.001200
C      7.29314      7.29314      0.08601        -0.412365     -0.314170     -0.014842
C      6.23373      6.23373      0.13007         0.178845      0.187750     -0.065834
C      3.19606      3.19606      0.08601         0.289132      0.479884     -0.023993
C      4.25547      4.25547      0.13007        -0.404701     -0.230927     -0.034660
C      7.29314      3.19606     10.40319        -0.278418      0.593341     -0.010732
C      6.23373      4.25547     10.35913         0.005370     -0.110506      0.020145
O     10.43466      3.58206      8.50569        -0.028120      0.091272      0.318812
O     10.54374     17.39634      8.50569         0.061985     -0.129052      0.592903
O     10.54374      3.58206     12.47271         0.027918      0.106151     -0.392891
O     10.43466     17.39634     12.47271         0.090375     -0.047643     -0.390037
O      8.50569     10.43466      3.58206         0.709773     -0.062256      0.012260
O      8.50569     10.54374     17.39634         0.485825      0.058089     -0.080386
O     12.47271     10.54374      3.58206        -0.648426      0.116590      0.205017
O     12.47271     10.43466     17.39634        -0.284607     -0.003720      0.023073
O      3.58206      8.50569     10.43466         0.039532      0.460227     -0.068461
O     17.39634      8.50569     10.54374        -0.058776      0.451905      0.056833
O      3.58206     12.47271     10.54374         0.114280     -0.583118      0.001834
O     17.39634     12.47271     10.43466        -0.173251     -0.743159     -0.055795
O      3.58206     10.43466      8.50569         0.210942     -0.061449      0.786333
O     17.39634     10.54374      8.50569        -0.097400      0.075727      0.551770
O      3.58206     10.54374     12.47271        -0.001142     -0.002618     -0.267775
O     17.39634     10.43466     12.47271         0.037700     -0.012262     -0.227180
O     10.43466      8.50569      3.58206        -0.104634      0.567977     -0.114448
O     10.54374      8.50569     17.39634         0.067732      0.505448     -0.087450
O     10.54374     12.47271      3.58206         0.104723     -0.625688      0.133578
O     10.43466     12.47271     17.39634        -0.060089     -0.658739     -0.257520
O      8.50569      3.58206     10.43466         0.394944      0.025956     -0.036918
O      8.50569     17.39634     10.54374         0.631294     -0.155237      0.047538
O     12.47271      3.58206     10.54374        -0.508313      0.126542      0.035130
O     12.47271     17.39634     10.43466        -0.622383     -0.131986      0.040466
O     11.90042     11.90042     19.56718        -0.274024     -0.307008      0.232716
O     19.56718     19.56718     19.56718         0.303812      0.318557      0.299513
O     19.56718     11.90042     11.90042         0.284716     -0.324680     -0.232338
O     11.90042     19.56718     11.90042        -0.316184      0.229325     -0.202749
O      9.45224      1.03696      9.45224        -0.084058      0.086351     -0.068080
O      1.03696      9.45224      9.45224         0.103322     -0.117207     -0.047744
O      1.03696      1.03696      1.03696         0.083817      0.056251      0.097104
O      9.45224      9.45224      1.03696        -0.061036     -0.131824      0.131094
Zr     10.48920      2.52580     10.48920         0.032191     -0.090100      0.082855
Zr     10.48920     18.45260     10.48920        -0.172174      0.259948     -0.346531
Zr     10.48920     10.48920      2.52580         0.119769      0.355360     -0.346498
Zr     10.48920     10.48920     18.45260        -0.083259     -0.209466      0.191253
Zr      2.52580     10.48920     10.48920        -0.254896      0.128418      0.231612
Zr     18.45260     10.48920     10.48920         0.224811     -0.116777     -0.003933
Pd      9.39703     14.26844      9.35175         0.000125      0.037232     -0.038250
Pd      8.61515     13.69463     12.99123        -0.015577     -0.020021      0.029984
Pd     12.03835     14.41443      8.73970         0.011687     -0.015941      0.006807
Pd     12.76425     12.82081     10.63354        -0.028899      0.013636      0.030998
Pd     12.14583      7.11624     12.61806        -0.001814      0.011419      0.000192
Pd     11.20837     14.84008     11.49873        -0.019158      0.036842     -0.026837
Pd     10.07335     12.50388     11.11079        -0.042184      0.050723     -0.037162
Pd     13.48336     12.13568      7.98160         0.013224      0.012892      0.003078
Pd     11.48132     11.55826      6.11219         0.005935      0.004993     -0.003775
Pd      7.86069      8.54826      7.54204         0.013908     -0.045280     -0.007242
Pd      8.73624     11.73220      6.88363        -0.007313      0.010802     -0.017733
Pd     10.30883      9.46561      8.14484        -0.007926     -0.002724      0.007181
Pd      8.50773     14.43722      6.83737        -0.010710      0.014953     -0.029309
Pd     12.36645      9.03484      6.58602         0.000182      0.007485      0.010392
Pd      9.74439      9.61049      5.55374        -0.000753      0.007618      0.002414
Pd      6.86455      9.45738     12.18523         0.003160      0.005621      0.001294
Pd     12.20915      6.69298      7.87735        -0.000238      0.013729      0.019860
Pd      5.94869     10.46004      9.72577        -0.015697     -0.007675     -0.003086
Pd      7.57622      7.14274     13.27539        -0.005066      0.024869      0.048384
Ir     11.79244      9.70264     13.05966        -0.027256     -0.016179     -0.020403
Ir     13.57702      8.99678     11.44674        -0.030925      0.019914      0.019952
Ir      9.42447      8.82853     13.90111        -0.018173      0.000891      0.069218
Ir     10.55803     10.91767     14.88402        -0.018508     -0.013039      0.062530
Ir      7.28711     12.02507     11.36743        -0.006819     -0.014959      0.004905
Ir     14.68949     10.84333     10.10435        -0.014147      0.035980      0.039725
Ir     12.19876     10.49003      9.65756        -0.000751      0.007806     -0.018784
Ir      8.78516     11.03476     13.01410         0.001414     -0.002090     -0.031986
Ir     10.14191      9.86438     11.21068        -0.004657      0.017275     -0.036336
Ir     13.75718     11.36626     12.42020        -0.041660      0.005077      0.054817
Ir     11.63554     12.29262     13.10926        -0.083811     -0.006842     -0.005036
Ir      8.52881     11.07641      9.38001        -0.010576      0.013703     -0.028823
Ir     11.59853      7.97724     10.07380         0.003086      0.016299      0.018734
Ir      7.24341     13.00588      8.70020         0.002717      0.026902      0.000069
Ir      9.51952      7.00064      9.11708         0.002178     -0.004490      0.044098
Ir      8.06776      8.74850     10.09888         0.002014     -0.003428     -0.011170
Ir     10.75894     12.09647      8.53567        -0.010530      0.007912     -0.019863
Ir      9.56554      7.45973     11.67194        -0.011790      0.073185      0.026708
Ir     13.69908      8.70709      8.80646         0.004046      0.015736      0.018750
