22
# total energy = -134.22636680 eVC      8.76164      1.73188      7.50000         0.013474      0.003598     -0.000000
C      0.71732      7.74708      7.50000        -0.013474     -0.003598     -0.000000
C      7.74708      8.76164      7.50000        -0.003598      0.013474     -0.000000
C      1.73188      0.71732      7.50000         0.003598     -0.013474      0.000000
C      0.71732      1.73188      7.50000        -0.013474      0.003598     -0.000000
C      8.76164      7.74708      7.50000         0.013474     -0.003598      0.000000
C      1.73188      8.76164      7.50000         0.003598      0.013474      0.000000
C      7.74708      0.71732      7.50000        -0.003598     -0.013474     -0.000000
O      8.24233      2.96756      7.50000        -0.014844     -0.003793      0.000000
O      1.23663      6.51140      7.50000         0.014844      0.003793      0.000000
O      6.51140      8.24233      7.50000         0.003793     -0.014844      0.000000
O      2.96756      1.23663      7.50000        -0.003793      0.014844     -0.000000
O      1.23663      2.96756      7.50000         0.014844     -0.003793     -0.000000
O      8.24233      6.51140      7.50000        -0.014844      0.003793     -0.000000
O      2.96756      8.24233      7.50000        -0.003793     -0.014844     -0.000000
O      6.51140      1.23663      7.50000         0.003793      0.014844      0.000000
Au     -0.00000      4.73948      7.50000        -0.000000      0.000000     -0.000000
Au      4.73948      0.00000      7.50000        -0.000000      0.000000     -0.000000
Au      3.44469      6.03427      7.50000        -0.011946      0.011946      0.000000
Au      6.03427      3.44469      7.50000         0.011946     -0.011946     -0.000000
Au      3.44469      3.44469      7.50000        -0.011946     -0.011946     -0.000000
Au      6.03427      6.03427      7.50000         0.011946      0.011946      0.000000
