152
# total energy = -1000.03848961 eVH     10.35389      5.87395      7.64558         0.320780     -0.335431      1.711169
H     10.62451     15.10445      7.64558         0.023126      0.144685      1.135381
H     10.62451      5.87395     13.33282         0.356879     -0.012173     -1.230159
H     10.35389     15.10445     13.33282        -0.144988     -0.174086     -0.840194
H      7.64558     10.35389      5.87395         1.417293      0.506444     -0.749059
H      7.64558     10.62451     15.10445         0.601963      0.164968      0.032833
H     13.33282     10.62451      5.87395        -1.419023      0.606158     -0.712867
H     13.33282     10.35389     15.10445        -0.601203     -0.065641     -0.001458
H      5.87395      7.64558     10.35389        -0.451956      1.849524      0.031310
H     15.10445      7.64558     10.62451         0.718247      1.490905     -0.599218
H      5.87395     13.33282     10.62451        -0.668477     -1.071789     -0.674810
H     15.10445     13.33282     10.35389         0.215283     -1.114873     -0.408754
H      5.87395     10.35389      7.64558        -2.353666      0.661494      1.968502
H     15.10445     10.62451      7.64558         0.850481      0.580032      1.596502
H      5.87395     10.62451     13.33282        -1.489596      0.528104     -1.123785
H     15.10445     10.35389     13.33282         1.404510      0.007039     -0.990634
H     10.35389      7.64558      5.87395         0.497957      1.023176     -0.161027
H     10.62451      7.64558     15.10445         0.162947      0.534814     -0.094598
H     10.62451     13.33282      5.87395        -0.838584     -1.456285     -0.718235
H     10.35389     13.33282     15.10445        -0.060659     -0.430478     -0.137348
H      7.64558      5.87395     10.35389         0.683016     -0.178178      0.044112
H      7.64558     15.10445     10.62451         0.600633     -0.086048     -0.168532
H     13.33282      5.87395     10.62451        -0.792516     -0.016582     -0.169462
H     13.33282     15.10445     10.35389        -0.432813     -0.082582     -0.045663
H     12.45634     12.45634     19.01126         0.252290      0.233956     -0.252631
H     19.01126     19.01126     19.01126        -0.249342     -0.244474     -0.244928
H     19.01126     12.45634     12.45634        -0.260664      0.259201      0.233062
H     12.45634     19.01126     12.45634         0.262127     -0.267004      0.223873
C     10.35284      5.61067      6.59456         0.106372     -1.012663     -2.076162
C     10.62556     15.36773      6.59456        -0.257291      0.803591     -1.052679
C     10.62556      5.61067     14.38384        -0.264138     -0.343222      1.599056
C     10.35284     15.36773     14.38384         0.118539      0.213501      0.931588
C      6.59456     10.35284      5.61067        -2.342454      0.215907     -1.702157
C      6.59456     10.62556     15.36773        -0.986536      0.112029      0.621862
C     14.38384     10.62556      5.61067         2.263079      0.177792     -1.306289
C     14.38384     10.35284     15.36773         1.017542      0.003509      0.450710
C      5.61067      6.59456     10.35284        -0.515233     -1.553930     -0.054132
C     15.36773      6.59456     10.62556         0.375229     -1.412970     -0.097159
C      5.61067     14.38384     10.62556        -0.204358      1.539091      0.036828
C     15.36773     14.38384     10.35284         0.217015      1.354473      0.081811
C      5.61067     10.35284      6.59456        -1.299481      0.084021     -2.709056
C     15.36773     10.62556      6.59456         0.964972      0.299792     -1.671832
C      5.61067     10.62556     14.38384         0.081643     -0.039077      1.899214
C     15.36773     10.35284     14.38384        -0.103685     -0.050388      1.840906
C     10.35284      6.59456      5.61067         0.210678     -1.366388     -1.125831
C     10.62556      6.59456     15.36773         0.112396     -0.477890      0.466807
C     10.62556     14.38384      5.61067         0.072730      1.613017     -0.798217
C     10.35284     14.38384     15.36773        -0.009053      0.452394      0.302557
C      6.59456      5.61067     10.35284        -0.786781     -1.121703     -0.013530
C      6.59456     15.36773     10.62556        -1.006887      0.700866     -0.037601
C     14.38384      5.61067     10.62556         1.050421     -0.961767     -0.143358
C     14.38384     15.36773     10.35284         0.454234      0.517498     -0.038468
C     10.40319      3.19606      7.29314        -0.043017      0.191352     -0.634723
C     10.35913      4.25547      6.23373        -0.070092     -0.547492      0.241597
C      0.08601      7.29314      7.29314         0.001189     -0.279388     -0.294649
C      0.13007      6.23373      6.23373         0.029090      0.363686      0.258291
C      0.08601      3.19606      3.19606         0.031445      0.461161      0.476992
C      0.13007      4.25547      4.25547        -0.002403     -0.539811     -0.451764
C     10.40319      7.29314      3.19606        -0.065509     -0.741473      0.234509
C     10.35913      6.23373      4.25547        -0.046438      0.302163     -0.463678
C      7.29314     10.40319      3.19606        -0.644653     -0.022749      0.103800
C      6.23373     10.35913      4.25547         0.498310     -0.041929     -0.502315
C      7.29314      0.08601      7.29314        -0.326862     -0.044096     -0.264143
C      6.23373      0.13007      6.23373         0.403464     -0.151656      0.414939
C      3.19606      0.08601      3.19606         0.891272     -0.023633      0.218109
C      4.25547      0.13007      4.25547        -0.592985     -0.200146     -0.597019
C      3.19606     10.40319      7.29314         0.250761     -0.014751     -0.251435
C      4.25547     10.35913      6.23373        -0.272054     -0.026693      0.504261
C      3.19606      7.29314     10.40319         0.236703     -0.377647      0.016214
C      4.25547      6.23373     10.35913        -0.649143      0.197441      0.051228
C      7.29314      7.29314      0.08601        -0.359675     -0.270067      0.014135
C      6.23373      6.23373      0.13007         0.506289      0.266603      0.076758
C      3.19606      3.19606      0.08601         0.628232      0.257061      0.030388
C      4.25547      4.25547      0.13007        -0.436334     -0.423821      0.094337
C      7.29314      3.19606     10.40319        -0.289393      0.320359      0.027413
C      6.23373      4.25547     10.35913         0.403651     -0.343433      0.070562
O     10.43466      3.58206      8.50569         0.068304      0.217802      0.616187
O     10.54374     17.39634      8.50569         0.019309     -0.191312      0.444405
O     10.54374      3.58206     12.47271         0.083433      0.169635     -0.497241
O     10.43466     17.39634     12.47271        -0.018130     -0.092399     -0.341233
O      8.50569     10.43466      3.58206         0.617146     -0.123768      0.233465
O      8.50569     10.54374     17.39634         0.506821      0.012586     -0.219258
O     12.47271     10.54374      3.58206        -0.808317      0.051820      0.258852
O     12.47271     10.43466     17.39634        -0.459733     -0.004797     -0.205737
O      3.58206      8.50569     10.43466         0.184064      0.529151     -0.027026
O     17.39634      8.50569     10.54374        -0.159997      0.420619      0.033876
O      3.58206     12.47271     10.54374         0.085439     -0.341423      0.022459
O     17.39634     12.47271     10.43466        -0.174250     -0.460550     -0.029544
O      3.58206     10.43466      8.50569         0.184609     -0.021688      0.406236
O     17.39634     10.54374      8.50569        -0.184582      0.046201      0.413737
O      3.58206     10.54374     12.47271         0.020436      0.048150     -0.210746
O     17.39634     10.43466     12.47271        -0.087722     -0.010601     -0.238572
O     10.43466      8.50569      3.58206        -0.099637      0.651866      0.162036
O     10.54374      8.50569     17.39634         0.010165      0.477205     -0.187923
O     10.54374     12.47271      3.58206         0.051844     -0.488670      0.094982
O     10.43466     12.47271     17.39634        -0.026854     -0.376408     -0.100882
O      8.50569      3.58206     10.43466         0.531029      0.146237     -0.033305
O      8.50569     17.39634     10.54374         0.549325     -0.206187      0.046757
O     12.47271      3.58206     10.54374        -0.686698      0.220828      0.042095
O     12.47271     17.39634     10.43466        -0.482055     -0.150015     -0.027341
O     11.90042     11.90042     19.56718        -0.292266     -0.254604      0.303486
O     19.56718     19.56718     19.56718         0.297014      0.297426      0.297708
O     19.56718     11.90042     11.90042         0.319759     -0.292805     -0.232787
O     11.90042     19.56718     11.90042        -0.302951      0.321809     -0.211156
O      9.45224      1.03696      9.45224        -0.025375      0.101204     -0.037991
O      1.03696      9.45224      9.45224         0.060308     -0.032912     -0.043007
O      1.03696      1.03696      1.03696         0.054668      0.096881      0.107293
O      9.45224      9.45224      1.03696        -0.047493     -0.043405      0.131668
Zr     10.48920      2.52580     10.48920        -0.174409     -0.297795     -0.038355
Zr     10.48920     18.45260     10.48920         0.077868      0.129793     -0.097316
Zr     10.48920     10.48920      2.52580        -0.074642      0.032839     -0.351026
Zr     10.48920     10.48920     18.45260        -0.008742     -0.047460      0.165712
Zr      2.52580     10.48920     10.48920        -0.111423     -0.100679     -0.101508
Zr     18.45260     10.48920     10.48920         0.089215      0.003169     -0.083185
Pd     11.49301      8.67665     10.14474         1.343212     -0.451099      0.665192
Pd      6.94444     10.25139     10.18585         0.115008      0.007923      0.280204
Pd      7.18491     12.59825     11.48624         0.256209      0.011811      0.583594
Pd     11.57675     13.18295      7.34484         0.772332      0.069167      0.018696
Pd     11.49805      8.49106      7.35191        -0.908083     -0.739789      0.237990
Pd      9.03605      7.09398      7.60235        -0.552757     -0.146916     -0.473545
Pd     11.38682     10.84742      5.96528         0.036309      0.263122     -0.403905
Pd     13.46003      9.93345      7.54907         0.568556      0.193522     -0.337528
Pd      9.24364     11.79593      7.23017         0.196458     -0.010564      0.084610
Pd      7.12574      7.95046     11.67923        -0.139169     -0.478885      0.410454
Pd      7.04236      7.81460      8.87836        -0.896688     -0.436945      0.344291
Pd      7.38179     10.27140     12.75017        -0.492729     -0.135056      0.291161
Pd     11.51594      6.25577      8.93798         0.238916     -0.294554      0.165009
Pd      9.28445      9.26974      6.01920         0.007170      0.255545     -0.403628
Pd      9.25104     14.07642      8.63602        -0.216509      0.239122      0.170971
Pd     11.51965      6.36172     11.57634        -0.016618     -0.347488      0.134643
Pd      9.44636      9.35023      8.94300        -0.729796      0.111133     -0.779196
Pd      9.30546     11.78843     10.05897        -0.204196      0.134097     -0.037928
Pd      9.27880      6.99814     10.26360         0.251287      0.155808      0.255489
Pd      9.30345      7.22549     12.96094        -0.375832     -0.105879      0.275279
Pd      9.34343      9.50685     11.49487         0.923210     -0.329896      0.132108
Pd     11.45026     10.95298      8.72606        -0.095519      0.611181      0.280900
Pd      7.05900     12.53865      8.72034        -0.155883      0.238029     -0.009577
Pd      7.42645     10.01505      7.70404         1.439366     -0.421404      0.944644
Pd     13.69730      7.78822      8.78004         0.573188     -1.232169      0.600720
Pd     13.66472      7.96922     11.57245        -0.090261     -0.108953      0.773561
Pd      9.32569     11.97738     12.87146         0.586822      0.181418      0.074963
Pd     13.70051     12.51638      8.59054         0.633286     -0.077551      0.242836
Pd     13.58989     10.34746     12.64827        -0.030540      0.375624      0.188223
Pd     13.85072     10.21031     10.04689         0.071946     -0.035152      0.471062
Pd     11.52683     11.06680     11.39274        -0.541898      0.371716     -0.131738
Pd     11.55134     13.47365      9.95418        -0.067746     -0.073178      0.345857
Pd     13.71653     12.59872     11.31993        -0.028316      0.156091      0.265932
Pd     11.58089     13.45413     12.66083         0.219541      0.194072      0.275506
Pd     11.58078     11.18413     14.10255        -0.201940      0.286854      0.442566
Pd     11.59612      8.72037     12.95274        -0.640351     -0.059329      0.059904
Pd      9.38889      9.61233     14.21967         0.419475     -0.168359      0.586586
Pd      9.34669     14.18909     11.30941         0.192216      0.245795      0.076223
