152
# total energy = -1093.12449546 eVH     10.35389      5.87395      7.64558         0.136352     -0.123126      1.310107
H     10.62451     15.10445      7.64558        -0.167964      0.117006      1.422148
H     10.62451      5.87395     13.33282         0.159409     -0.062013     -1.175531
H     10.35389     15.10445     13.33282        -0.052681     -0.068927     -0.965979
H      7.64558     10.35389      5.87395         0.472496      0.014163     -0.057503
H      7.64558     10.62451     15.10445         0.409172      0.003458     -0.005576
H     13.33282     10.62451      5.87395        -0.661481     -0.038995     -0.002122
H     13.33282     10.35389     15.10445        -0.416552      0.004197      0.002383
H      5.87395      7.64558     10.35389        -0.131212      1.286730      0.135695
H     15.10445      7.64558     10.62451        -0.001080      0.517680      0.036227
H      5.87395     13.33282     10.62451        -0.059614     -0.237155      0.033407
H     15.10445     13.33282     10.35389         0.243543     -1.614757      0.095162
H      5.87395     10.35389      7.64558        -0.092907     -0.697956      0.466810
H     15.10445     10.62451      7.64558         0.492181      0.829490      0.078905
H      5.87395     10.62451     13.33282        -0.019906     -0.183840     -0.293287
H     15.10445     10.35389     13.33282        -0.089643      0.208750     -0.103765
H     10.35389      7.64558      5.87395        -0.170287      0.459104      0.038726
H     10.62451      7.64558     15.10445         0.054796      0.569936      0.238041
H     10.62451     13.33282      5.87395        -0.010647     -0.465990     -0.167606
H     10.35389     13.33282     15.10445        -0.168323     -0.504232      0.219089
H      7.64558      5.87395     10.35389         0.453529     -0.014124     -0.044464
H      7.64558     15.10445     10.62451         0.304343      0.019247     -0.031585
H     13.33282      5.87395     10.62451        -0.210411     -0.093474     -0.017732
H     13.33282     15.10445     10.35389        -0.509483      0.125017     -0.027261
H     12.45634     12.45634     19.01126         0.265550      0.247299     -0.243961
H     19.01126     19.01126     19.01126        -0.261833     -0.242766     -0.253015
H     19.01126     12.45634     12.45634        -0.262752      0.265386      0.232627
H     12.45634     19.01126     12.45634         0.274695     -0.254147      0.226496
C     10.35284      5.61067      6.59456        -0.219799     -0.277465     -1.749751
C     10.62556     15.36773      6.59456         0.429467      0.116398     -1.875067
C     10.62556      5.61067     14.38384        -0.334719     -0.106269      1.682164
C     10.35284     15.36773     14.38384         0.290349      0.130477      1.653726
C      6.59456     10.35284      5.61067        -0.832657     -0.105299     -0.300518
C      6.59456     10.62556     15.36773        -0.828240     -0.010116      0.100616
C     14.38384     10.62556      5.61067         1.037881      0.035195     -0.231131
C     14.38384     10.35284     15.36773         0.786081     -0.008349      0.189909
C      5.61067      6.59456     10.35284        -0.086043     -1.564396      0.007848
C     15.36773      6.59456     10.62556         0.268262     -0.990137      0.032065
C      5.61067     14.38384     10.62556        -0.384161      0.747180      0.036546
C     15.36773     14.38384     10.35284         0.046194      1.854695     -0.083862
C      5.61067     10.35284      6.59456        -0.703502      0.243634     -1.794205
C     15.36773     10.62556      6.59456         0.775492     -0.212541     -1.996488
C      5.61067     10.62556     14.38384        -0.642903      0.091575      1.641800
C     15.36773     10.35284     14.38384         0.598879     -0.074274      1.422199
C     10.35284      6.59456      5.61067         0.026825     -1.576082     -0.773142
C     10.62556      6.59456     15.36773        -0.036896     -1.811862      0.747576
C     10.62556     14.38384      5.61067         0.106586      1.799967     -0.884567
C     10.35284     14.38384     15.36773         0.047682      1.897060      0.656951
C      6.59456      5.61067     10.35284        -0.789829     -0.798959     -0.017779
C      6.59456     15.36773     10.62556        -1.052724      0.560514      0.075720
C     14.38384      5.61067     10.62556         1.030590     -0.764163      0.093595
C     14.38384     15.36773     10.35284         0.884760      0.960114      0.006361
C     10.40319      3.19606      7.29314        -0.001037      0.536269     -0.533779
C     10.35913      4.25547      6.23373        -0.022538     -0.832195      0.512496
C      0.08601      7.29314      7.29314         0.019174     -0.487801     -0.586156
C      0.13007      6.23373      6.23373         0.033263      0.894342      0.471810
C      0.08601      3.19606      3.19606         0.024526      0.707174      0.445620
C      0.13007      4.25547      4.25547        -0.041628     -0.771323     -0.492638
C     10.40319      7.29314      3.19606        -0.009098     -0.727562      0.500665
C     10.35913      6.23373      4.25547         0.020210      0.588641     -0.506909
C      7.29314     10.40319      3.19606        -0.302930     -0.008622      0.595752
C      6.23373     10.35913      4.25547         0.174237     -0.073594     -0.175304
C      7.29314      0.08601      7.29314        -0.235874     -0.030380     -0.394026
C      6.23373      0.13007      6.23373         0.151633     -0.094462      0.371804
C      3.19606      0.08601      3.19606         0.409561      0.010439      0.423846
C      4.25547      0.13007      4.25547        -0.190553      0.071653     -0.211937
C      3.19606     10.40319      7.29314         0.256051      0.026979     -0.479679
C      4.25547     10.35913      6.23373        -0.165474      0.104697      0.384396
C      3.19606      7.29314     10.40319         0.186744     -0.306015     -0.000428
C      4.25547      6.23373     10.35913        -0.560036      0.188942      0.044893
C      7.29314      7.29314      0.08601        -0.586319     -0.466099      0.005633
C      6.23373      6.23373      0.13007         0.124882      0.226589     -0.061100
C      3.19606      3.19606      0.08601         0.562134      0.414410      0.000699
C      4.25547      4.25547      0.13007        -0.057674     -0.094570     -0.030164
C      7.29314      3.19606     10.40319        -0.211787      0.363998      0.000474
C      6.23373      4.25547     10.35913         0.624820     -0.261694      0.025243
O     10.43466      3.58206      8.50569         0.011751      0.226771      0.479652
O     10.54374     17.39634      8.50569        -0.031230     -0.233045      0.512739
O     10.54374      3.58206     12.47271         0.079204      0.154082     -0.374899
O     10.43466     17.39634     12.47271        -0.108764     -0.147644     -0.383185
O      8.50569     10.43466      3.58206         0.389133     -0.019765      0.055812
O      8.50569     10.54374     17.39634         0.453084      0.059011     -0.120783
O     12.47271     10.54374      3.58206        -0.511571     -0.010299      0.116995
O     12.47271     10.43466     17.39634        -0.438929     -0.053920     -0.115250
O      3.58206      8.50569     10.43466         0.169538      0.422468     -0.048833
O     17.39634      8.50569     10.54374        -0.082554      0.554874      0.045964
O      3.58206     12.47271     10.54374         0.047086     -0.510631      0.040920
O     17.39634     12.47271     10.43466        -0.174902     -0.464108     -0.020725
O      3.58206     10.43466      8.50569         0.180680     -0.016431      0.482827
O     17.39634     10.54374      8.50569        -0.121176     -0.010619      0.456367
O      3.58206     10.54374     12.47271         0.167923      0.083137     -0.445627
O     17.39634     10.43466     12.47271        -0.205947     -0.077044     -0.574036
O     10.43466      8.50569      3.58206         0.051191      0.610163      0.260356
O     10.54374      8.50569     17.39634         0.061546      0.511854     -0.217014
O     10.54374     12.47271      3.58206        -0.015348     -0.665154      0.280560
O     10.43466     12.47271     17.39634        -0.030310     -0.531080     -0.228690
O      8.50569      3.58206     10.43466         0.513910      0.148909     -0.030135
O      8.50569     17.39634     10.54374         0.612301     -0.094027      0.050525
O     12.47271      3.58206     10.54374        -0.633396      0.118526      0.027356
O     12.47271     17.39634     10.43466        -0.495252     -0.140256     -0.015392
O     11.90042     11.90042     19.56718        -0.310339     -0.284983      0.269189
O     19.56718     19.56718     19.56718         0.310455      0.271251      0.290979
O     19.56718     11.90042     11.90042         0.315129     -0.313582     -0.234393
O     11.90042     19.56718     11.90042        -0.333462      0.281308     -0.226256
O      9.45224      1.03696      9.45224        -0.040010      0.055242     -0.065782
O      1.03696      9.45224      9.45224         0.029198     -0.081067     -0.060434
O      1.03696      1.03696      1.03696         0.026645      0.049132      0.133214
O      9.45224      9.45224      1.03696        -0.033582     -0.085292      0.134148
Zr     10.48920      2.52580     10.48920        -0.102152     -0.119776     -0.009414
Zr     10.48920     18.45260     10.48920         0.131751      0.189516     -0.111337
Zr     10.48920     10.48920      2.52580         0.008152      0.089638     -0.321680
Zr     10.48920     10.48920     18.45260        -0.026753     -0.018233      0.148149
Zr      2.52580     10.48920     10.48920        -0.029681     -0.027410     -0.046878
Zr     18.45260     10.48920     10.48920         0.115290      0.115943     -0.167364
Pd     13.00566      8.07538      7.67018        -0.033471     -0.001998     -0.022985
Pd      9.57792     14.60520     11.72417        -0.014519     -0.037023      0.037201
Pd     12.34815     10.91505     10.43056        -0.011087      0.035568      0.019093
Pd     14.72274     10.06267     11.56699        -0.019062     -0.024514      0.040653
Pd     11.00599      9.29389      6.18201        -0.019773     -0.035265     -0.020737
Pd      6.96786      8.50260      9.00989        -0.027389      0.007862     -0.023742
Ir     10.27237     11.86622     11.75958         0.005685      0.035834     -0.056868
Ir     12.95736      8.31105     10.34220        -0.062422     -0.059200      0.011104
Ir     12.31550     11.00503      7.73404         0.036571     -0.001908     -0.010659
Ir      9.66509     14.38584      9.13537         0.027789     -0.035920      0.026695
Ir     10.83139      9.20246     11.73121        -0.022707     -0.002554     -0.034131
Ir      8.72506     10.05607      7.77157        -0.068870     -0.023634      0.023001
Ir     13.87249     12.55020      9.02436        -0.019698     -0.021238      0.036490
Ir     11.96561     13.58447      7.79964         0.017020      0.000011      0.009406
Ir     14.31573      9.93159      9.02864         0.006323      0.022419     -0.056145
Ir      9.24974      7.43676     10.41885         0.007947      0.017391     -0.053692
Ir      8.15630     12.70666      7.82550        -0.003229      0.013038      0.038839
Ir      9.20131      7.59280      7.84074        -0.026706     -0.022160      0.005510
Ir     11.86051     13.54963     13.01891         0.004918     -0.035936      0.005203
Ir     11.44440      6.71161     11.74521         0.023412      0.029178     -0.043857
Ir     10.25376     11.81911      9.07527        -0.065667      0.018168      0.074755
Ir     12.95705      8.36805     12.98017        -0.029049     -0.022988      0.044196
Ir     10.86213      9.16552      9.00419        -0.096723     -0.076210     -0.022696
Ir     11.78559     13.60378     10.39727        -0.000994     -0.016216      0.010244
Ir     13.83366     12.65345     11.77710         0.016090     -0.003919      0.027431
Ir     12.39591     11.02478     13.09071         0.014398      0.004407     -0.021914
Ir     10.14557     11.69150      6.48598        -0.030725      0.023568     -0.008569
Ir     11.35140      6.59586      9.23602         0.012010      0.006776     -0.016928
Ir      7.24066      8.35864     11.82303        -0.078460     -0.011462     -0.018710
Ir      8.18789     12.70793     10.42849         0.039772      0.019790     -0.016007
Ir     10.93745      9.28375     14.28952        -0.033396     -0.064832     -0.001408
Ir      8.10863     12.54564     12.98914        -0.028652      0.020127     -0.006762
Ir      6.58120     11.21173      9.10016         0.031029      0.016775     -0.034514
Ir      8.69423     10.05251     13.07667        -0.056229     -0.007879      0.005178
Ir      6.61203     10.90155     11.55544        -0.047528      0.009816      0.057536
Ir      9.17020      7.47435     13.08090        -0.009498     -0.017231     -0.044725
Ir     10.21903     11.66532     14.36837        -0.021978      0.021455     -0.008655
Ir      8.74372     10.05670     10.41537         0.037110     -0.000227     -0.014683
