152
# total energy = -1060.58297528 eVH     10.35389      5.87395      7.64558        -0.247124      0.142215      1.023767
H     10.62451     15.10445      7.64558         0.198214     -0.093391      0.800243
H     10.62451      5.87395     13.33282        -0.303695      0.075908     -0.692663
H     10.35389     15.10445     13.33282         0.118266     -0.292970     -0.673829
H      7.64558     10.35389      5.87395         0.802424     -0.163961      0.214020
H      7.64558     10.62451     15.10445         0.232561      0.036636     -0.059312
H     13.33282     10.62451      5.87395        -0.693567     -0.024931      0.171117
H     13.33282     10.35389     15.10445        -0.314120     -0.092744     -0.041964
H      5.87395      7.64558     10.35389         0.102886      0.405673     -0.000061
H     15.10445      7.64558     10.62451        -0.098032      0.765983      0.311664
H      5.87395     13.33282     10.62451         0.007566     -0.761938      0.080579
H     15.10445     13.33282     10.35389        -0.228507     -0.411473      0.050345
H      5.87395     10.35389      7.64558         0.277799      0.067104      0.352110
H     15.10445     10.62451      7.64558        -0.160131     -0.116789      0.487011
H      5.87395     10.62451     13.33282        -0.003831      0.349262     -0.702411
H     15.10445     10.35389     13.33282         0.138400     -0.387673     -0.859180
H     10.35389      7.64558      5.87395        -0.025892      0.492221      0.333708
H     10.62451      7.64558     15.10445         0.236117      0.636611     -0.113206
H     10.62451     13.33282      5.87395         0.060517     -0.621874      0.172646
H     10.35389     13.33282     15.10445         0.089533     -0.398821     -0.115687
H      7.64558      5.87395     10.35389         0.435549      0.142683      0.046386
H      7.64558     15.10445     10.62451         0.383265     -0.131518      0.235618
H     13.33282      5.87395     10.62451        -0.304494      0.112404      0.005950
H     13.33282     15.10445     10.35389        -0.611308     -0.216310      0.202106
H     12.45634     12.45634     19.01126         0.255041      0.266813     -0.227289
H     19.01126     19.01126     19.01126        -0.249878     -0.268903     -0.234629
H     19.01126     12.45634     12.45634        -0.237577      0.266692      0.245469
H     12.45634     19.01126     12.45634         0.297569     -0.219373      0.236857
C     10.35284      5.61067      6.59456         0.414264     -0.326271     -1.171364
C     10.62556     15.36773      6.59456        -0.273467      0.695686     -0.648248
C     10.62556      5.61067     14.38384         0.339311     -0.281782      0.722550
C     10.35284     15.36773     14.38384        -0.182787      0.329908      0.814433
C      6.59456     10.35284      5.61067        -1.018379     -0.026344     -0.185666
C      6.59456     10.62556     15.36773        -0.637612      0.063266      0.352041
C     14.38384     10.62556      5.61067         1.266391     -0.050938     -0.596517
C     14.38384     10.35284     15.36773         0.311973     -0.111275      0.398725
C      5.61067      6.59456     10.35284        -0.301243     -0.599585     -0.005021
C     15.36773      6.59456     10.62556         0.317856     -0.955519     -0.247344
C      5.61067     14.38384     10.62556        -0.209736      0.879802     -0.286199
C     15.36773     14.38384     10.35284         0.427684      0.848407     -0.091667
C      5.61067     10.35284      6.59456        -0.262841     -0.118896     -0.503437
C     15.36773     10.62556      6.59456         0.228655      0.104493     -0.434790
C      5.61067     10.62556     14.38384        -0.321971     -0.145552      1.213451
C     15.36773     10.35284     14.38384         0.188434      0.097035      1.171060
C     10.35284      6.59456      5.61067        -0.029833     -0.581386     -0.413527
C     10.62556      6.59456     15.36773        -0.012818     -0.761758      0.371696
C     10.62556     14.38384      5.61067        -0.442864      0.344992     -0.763126
C     10.35284     14.38384     15.36773        -0.187185      0.673436      0.427842
C      6.59456      5.61067     10.35284        -0.546441     -0.322364      0.057715
C      6.59456     15.36773     10.62556        -0.255711      0.494511      0.072703
C     14.38384      5.61067     10.62556         0.329889     -0.385570      0.087164
C     14.38384     15.36773     10.35284         0.999839      0.331096     -0.084777
C     10.40319      3.19606      7.29314        -0.003701      0.811929     -0.362441
C     10.35913      4.25547      6.23373         0.036884     -0.402293      0.308369
C      0.08601      7.29314      7.29314        -0.009299     -0.572713     -0.514680
C      0.13007      6.23373      6.23373        -0.082609      0.800755      0.065135
C      0.08601      3.19606      3.19606        -0.018631      0.486567      0.285780
C      0.13007      4.25547      4.25547         0.071551     -0.210721     -0.612302
C     10.40319      7.29314      3.19606        -0.038485     -1.139284      0.862449
C     10.35913      6.23373      4.25547        -0.022974      0.371824     -0.217187
C      7.29314     10.40319      3.19606        -0.945542     -0.052612      0.313746
C      6.23373     10.35913      4.25547         0.345026      0.099331     -0.510688
C      7.29314      0.08601      7.29314        -0.820751      0.014966     -0.393348
C      6.23373      0.13007      6.23373         0.156363      0.061623      0.113926
C      3.19606      0.08601      3.19606         0.502203     -0.000969      0.210818
C      4.25547      0.13007      4.25547        -0.205757     -0.083837     -0.212720
C      3.19606     10.40319      7.29314         0.481608     -0.037108     -1.012884
C      4.25547     10.35913      6.23373        -0.161248     -0.013261      0.155688
C      3.19606      7.29314     10.40319         0.713299     -0.437097      0.012196
C      4.25547      6.23373     10.35913        -0.108626      0.163518     -0.000089
C      7.29314      7.29314      0.08601        -0.381308     -0.304366     -0.023893
C      6.23373      6.23373      0.13007         0.271884      0.126995     -0.163432
C      3.19606      3.19606      0.08601         0.324291      0.577782     -0.018145
C      4.25547      4.25547      0.13007        -0.435185     -0.287254      0.002462
C      7.29314      3.19606     10.40319        -0.263456      0.637153      0.007619
C      6.23373      4.25547     10.35913         0.026570     -0.187988      0.014374
O     10.43466      3.58206      8.50569        -0.034458      0.062106      0.266906
O     10.54374     17.39634      8.50569         0.066658     -0.053730      0.469877
O     10.54374      3.58206     12.47271         0.039847      0.154320     -0.478649
O     10.43466     17.39634     12.47271         0.065201     -0.017347     -0.495978
O      8.50569     10.43466      3.58206         0.655191     -0.082749      0.070808
O      8.50569     10.54374     17.39634         0.802022      0.076677     -0.123120
O     12.47271     10.54374      3.58206        -0.492662      0.098657      0.160438
O     12.47271     10.43466     17.39634        -0.332184     -0.006614      0.053722
O      3.58206      8.50569     10.43466         0.009501      0.438435     -0.080048
O     17.39634      8.50569     10.54374        -0.113564      0.440939      0.037693
O      3.58206     12.47271     10.54374         0.139483     -0.619622     -0.007337
O     17.39634     12.47271     10.43466        -0.250755     -0.743794     -0.005161
O      3.58206     10.43466      8.50569         0.171912     -0.039831      0.825356
O     17.39634     10.54374      8.50569         0.008281      0.035209      0.321829
O      3.58206     10.54374     12.47271         0.025965      0.008303     -0.337609
O     17.39634     10.43466     12.47271        -0.035261      0.004316     -0.345591
O     10.43466      8.50569      3.58206        -0.079591      0.565091     -0.111451
O     10.54374      8.50569     17.39634         0.042578      0.642541     -0.097103
O     10.54374     12.47271      3.58206         0.083698     -0.479208      0.101324
O     10.43466     12.47271     17.39634        -0.054549     -0.789283     -0.282734
O      8.50569      3.58206     10.43466         0.357501      0.023660     -0.064233
O      8.50569     17.39634     10.54374         0.550867     -0.135572      0.051704
O     12.47271      3.58206     10.54374        -0.483628      0.124187      0.023738
O     12.47271     17.39634     10.43466        -0.623799     -0.093269      0.051623
O     11.90042     11.90042     19.56718        -0.264522     -0.279079      0.222881
O     19.56718     19.56718     19.56718         0.292168      0.308364      0.280321
O     19.56718     11.90042     11.90042         0.260830     -0.308910     -0.269996
O     11.90042     19.56718     11.90042        -0.311919      0.194526     -0.218023
O      9.45224      1.03696      9.45224        -0.126692      0.140185     -0.049377
O      1.03696      9.45224      9.45224         0.150112     -0.149843     -0.065102
O      1.03696      1.03696      1.03696         0.101589      0.113792      0.045698
O      9.45224      9.45224      1.03696        -0.119647     -0.155316      0.104535
Zr     10.48920      2.52580     10.48920         0.036722     -0.190666      0.189209
Zr     10.48920     18.45260     10.48920        -0.189347      0.246738     -0.372787
Zr     10.48920     10.48920      2.52580         0.159758      0.451053     -0.196243
Zr     10.48920     10.48920     18.45260         0.002970     -0.213858      0.322326
Zr      2.52580     10.48920     10.48920        -0.362065      0.090510      0.301873
Zr     18.45260     10.48920     10.48920         0.224986     -0.149253     -0.006562
Pd      9.27706     14.40309      9.15262        -0.030899      0.185416     -0.038240
Pd      8.48779     13.62669     13.23084        -0.040504     -0.030979      0.148761
Pd     11.97698     14.41642      8.84834         0.015811     -0.011680      0.143588
Pd     12.45020     12.78851     10.84429        -0.040684      0.040389      0.058655
Pd     12.05884      7.11901     12.48793         0.008405      0.114082     -0.106328
Pd     11.00572     15.14512     11.32047         0.039912     -0.020024     -0.083087
Pd      9.79660     12.82310     11.07448         0.024245      0.014340      0.194407
Pd     13.57895     12.36615      8.14999         0.037319     -0.011048     -0.042752
Pd     11.63422     11.71483      6.30077        -0.080085     -0.121606      0.133484
Pd      7.77723      8.18914      7.47739         0.037740      0.070552     -0.056266
Pd      8.73374     11.83109      6.85826         0.112455     -0.079826     -0.061255
Pd      9.97917      9.63804      8.18608        -0.068197     -0.009642      0.030269
Pd      8.46184     14.50243      6.59921         0.115064      0.065519      0.047937
Pd     12.28602      9.20114      7.06079        -0.009584      0.009609     -0.163591
Pd      9.97967      9.71774      5.54471        -0.027045      0.052886      0.017561
Pd      6.89433      9.34680     12.23045         0.023061      0.042831      0.141167
Pd     12.28276      6.65361      7.89394        -0.083225     -0.087183     -0.013372
Pd      5.80670     10.48454      9.86583        -0.035880      0.044292      0.011690
Pd      7.55055      6.93684     13.19596         0.018013     -0.010759     -0.030409
Ir     11.47533      9.65166     13.09086        -0.216076     -0.032934     -0.070344
Ir     13.33830      9.20084     11.45667        -0.020807     -0.130897      0.099790
Ir      9.17202      8.76065     13.97688         0.109857      0.074487      0.053501
Ir     10.33741     10.69192     15.16323        -0.003352      0.015580     -0.078046
Ir      7.20432     11.94981     11.55181        -0.158055      0.026615     -0.122694
Ir     14.57666     11.11181     10.41559        -0.001052     -0.007095      0.148588
Ir     12.31756     10.48753      9.45201         0.157767      0.000255     -0.160441
Ir      8.90753     11.03037     12.96794         0.099372     -0.274661      0.161843
Ir     10.06811     10.05252     10.90486         0.052589      0.011031      0.103526
Ir     13.43899     11.37787     12.72385        -0.056589      0.098871     -0.141407
Ir     11.17168     12.17531     13.23252         0.082025      0.035854     -0.100067
Ir      8.28041     11.34004      9.36965        -0.109674      0.057863     -0.034065
Ir     11.48978      8.03603      9.97698         0.130263     -0.000119     -0.121936
Ir      7.09659     13.22704      8.47193        -0.039872     -0.103948     -0.078202
Ir      9.41278      7.02192      9.20463        -0.166588     -0.005168     -0.121089
Ir      7.94759      8.89976      9.96485         0.125713     -0.011958     -0.057213
Ir     10.67898     12.15511      8.65153         0.022849     -0.057629      0.065135
Ir      9.49584      7.73801     11.67868        -0.063725     -0.001244      0.067972
Ir     13.84848      8.43344      9.07314        -0.064836      0.160391     -0.059642
