13
# total energy = -105.61481933 eVC      1.26216      6.81156      0.00000         0.052237      0.026574      0.000000
C      3.78512      6.81156      0.00000        -0.052237      0.026574      0.000000
C      3.78512      1.42095      0.00000        -0.052237     -0.026574      0.000000
C      1.26216      1.42095     -0.00000         0.052237     -0.026574      0.000000
C     -0.00000      7.52486      0.00000         0.000000     -0.009855      0.000000
C     -0.00000      0.70765      0.00000         0.000000      0.009855      0.000000
C      2.52364      7.52058      0.00000         0.000000     -0.016442      0.000000
C      2.52364      0.71193     -0.00000         0.000000      0.016442     -0.000000
O      1.20033      2.72153     -0.00000         0.019610     -0.018940     -0.000000
O      3.84695      2.72153      0.00000        -0.019610     -0.018940      0.000000
O      3.84695      5.51098      0.00000        -0.019610      0.018940      0.000000
O      1.20033      5.51098     -0.00000         0.019610      0.018940     -0.000000
Ir      2.52364      4.11625      0.00000         0.000000      0.000000      0.000000
