35
# total energy = -230.84754853 eVC      4.82826      9.03529      7.49840         0.005078      0.046517      0.000000
C      7.18404      2.97701      7.49840        -0.005078     -0.046517      0.000000
C      2.97701      4.82826      7.49840        -0.046517      0.005078     -0.000000
C      9.03529      7.18404      7.49840         0.046517     -0.005078     -0.000000
C      7.18404      9.03529      7.49840        -0.005078      0.046517      0.000000
C      4.82826      2.97701      7.49840         0.005078     -0.046517     -0.000000
C      9.03529      4.82826      7.49840         0.046517      0.005078      0.000000
C      2.97701      7.18404      7.49840        -0.046517     -0.005078     -0.000000
C      8.46485      8.46485      7.49840         0.059587      0.059587     -0.000000
C      3.54745      3.54745      7.49840        -0.059587     -0.059587     -0.000000
C      3.54745      8.46485      7.49840        -0.059587      0.059587     -0.000000
C      8.46485      3.54745      7.49840         0.059587     -0.059587     -0.000000
C     11.28676      0.72554      7.49840         0.106800     -0.106800     -0.000000
C      0.72554     11.28676      7.49840        -0.106800      0.106800     -0.000000
C     11.28676     11.28676      7.49840         0.106800      0.106800     -0.000000
C      0.72554      0.72554      7.49840        -0.106800     -0.106800      0.000000
N      6.00615      8.35502      7.49840        -0.000000     -0.099829      0.000000
N      6.00615      3.65728      7.49840         0.000000      0.099829     -0.000000
N      3.65728      6.00615      7.49840         0.099829     -0.000000     -0.000000
N      8.35502      6.00615      7.49840        -0.099829     -0.000000     -0.000000
O      4.70955     10.37525      7.49840        -0.007813     -0.013700     -0.000000
O      7.30275      1.63705      7.49840         0.007813      0.013700      0.000000
O      1.63705      4.70955      7.49840         0.013700     -0.007813     -0.000000
O     10.37525      7.30275      7.49840        -0.013700      0.007813      0.000000
O      7.30275     10.37525      7.49840         0.007813     -0.013700      0.000000
O      4.70955      1.63705      7.49840        -0.007813      0.013700     -0.000000
O     10.37525      4.70955      7.49840        -0.013700     -0.007813     -0.000000
O      1.63705      7.30275      7.49840         0.013700      0.007813      0.000000
Au      9.91220      2.10010      7.49840        -0.140619      0.140619     -0.000000
Au      2.10010      9.91220      7.49840         0.140619     -0.140619      0.000000
Au      9.91220      9.91220      7.49840        -0.140619     -0.140619     -0.000000
Au      2.10010      2.10010      7.49840         0.140619      0.140619     -0.000000
Au      6.00615      6.00615      7.49840         0.000000     -0.000000     -0.000000
Au      6.00615     -0.00000      7.49840         0.000000     -0.000000     -0.000000
Au      0.00000      6.00615      7.49840         0.000000     -0.000000     -0.000000
