152
# total energy = -1022.82027176 eVH     10.35389      5.87395      7.64558         0.479693      0.027807      0.912114
H     10.62451     15.10445      7.64558        -0.036851      0.055539      0.767336
H     10.62451      5.87395     13.33282         0.142610      0.114650     -0.602570
H     10.35389     15.10445     13.33282        -0.256414     -0.078911     -0.556699
H      7.64558     10.35389      5.87395         0.330782     -0.037786      0.189790
H      7.64558     10.62451     15.10445         0.614878     -0.188747     -0.146965
H     13.33282     10.62451      5.87395        -0.866251     -0.331850      0.163435
H     13.33282     10.35389     15.10445        -0.446489     -0.074063     -0.071997
H      5.87395      7.64558     10.35389         0.124546      1.130695     -0.150239
H     15.10445      7.64558     10.62451        -0.170701      0.400803     -0.086798
H      5.87395     13.33282     10.62451         0.142497     -0.403827     -0.072206
H     15.10445     13.33282     10.35389        -0.077604     -0.966929     -0.200811
H      5.87395     10.35389      7.64558         0.125180      0.034339      0.476818
H     15.10445     10.62451      7.64558         0.129518     -0.219601      0.797685
H      5.87395     10.62451     13.33282         0.275413     -0.023228     -0.392202
H     15.10445     10.35389     13.33282        -0.158460      0.019028     -0.609315
H     10.35389      7.64558      5.87395         0.067993      0.843416      0.112819
H     10.62451      7.64558     15.10445         0.021021      0.583916     -0.140187
H     10.62451     13.33282      5.87395         0.075610     -0.601114      0.170548
H     10.35389     13.33282     15.10445        -0.249218     -0.893382     -0.111174
H      7.64558      5.87395     10.35389         0.528460      0.038012     -0.139329
H      7.64558     15.10445     10.62451         0.924182     -0.197196      0.315621
H     13.33282      5.87395     10.62451        -0.435551      0.188022     -0.059097
H     13.33282     15.10445     10.35389        -1.031311     -0.092234      0.288710
H     12.45634     12.45634     19.01126         0.267339      0.256969     -0.224759
H     19.01126     19.01126     19.01126        -0.247382     -0.235501     -0.262093
H     19.01126     12.45634     12.45634        -0.241014      0.270165      0.239535
H     12.45634     19.01126     12.45634         0.210296     -0.283719      0.253106
C     10.35284      5.61067      6.59456        -0.126007     -0.433698     -0.423457
C     10.62556     15.36773      6.59456         0.017718      0.351385     -1.148871
C     10.62556      5.61067     14.38384        -0.028083     -0.227834      0.722520
C     10.35284     15.36773     14.38384         0.184979      0.766298      0.142501
C      6.59456     10.35284      5.61067        -0.412427     -0.041596     -0.182193
C      6.59456     10.62556     15.36773        -0.773487      0.150758      0.346816
C     14.38384     10.62556      5.61067         0.637375      0.289020     -0.357513
C     14.38384     10.35284     15.36773         0.716685     -0.118739      0.418021
C      5.61067      6.59456     10.35284        -0.429842     -0.763367      0.271169
C     15.36773      6.59456     10.62556         0.200616     -0.464084      0.048192
C      5.61067     14.38384     10.62556        -0.264350      0.373617     -0.021595
C     15.36773     14.38384     10.35284         0.394524      0.165681      0.219571
C      5.61067     10.35284      6.59456        -0.313134     -0.014007     -0.894698
C     15.36773     10.62556      6.59456         0.576786     -0.155519     -1.234204
C      5.61067     10.62556     14.38384        -0.466474      0.009035      0.928536
C     15.36773     10.35284     14.38384         0.518302     -0.174946      1.247595
C     10.35284      6.59456      5.61067        -0.033223     -0.927740     -0.678312
C     10.62556      6.59456     15.36773         0.049663     -0.703772      0.301994
C     10.62556     14.38384      5.61067         0.040587      1.260197     -0.706685
C     10.35284     14.38384     15.36773         0.104998      0.612462      0.650858
C      6.59456      5.61067     10.35284        -0.224070     -0.904102      0.134712
C      6.59456     15.36773     10.62556        -1.741534      0.498775      0.034059
C     14.38384      5.61067     10.62556         0.579548     -0.227025     -0.008658
C     14.38384     15.36773     10.35284         0.225569      0.548258     -0.230137
C     10.40319      3.19606      7.29314         0.015225      0.901547     -0.248781
C     10.35913      4.25547      6.23373        -0.051074     -0.363846      0.613806
C      0.08601      7.29314      7.29314        -0.008434     -0.235339     -0.463615
C      0.13007      6.23373      6.23373         0.000822      0.126426      0.209957
C      0.08601      3.19606      3.19606        -0.016731      0.633379      0.181000
C      0.13007      4.25547      4.25547        -0.091489     -0.199553     -0.165702
C     10.40319      7.29314      3.19606        -0.002406     -0.683411      0.528405
C     10.35913      6.23373      4.25547        -0.007243      0.513448     -0.388021
C      7.29314     10.40319      3.19606        -0.340507      0.022445      0.858289
C      6.23373     10.35913      4.25547         0.208150      0.010169     -0.144687
C      7.29314      0.08601      7.29314        -0.305827     -0.046708     -0.269909
C      6.23373      0.13007      6.23373         0.266635     -0.057766      0.288788
C      3.19606      0.08601      3.19606         0.419239     -0.051964      1.321786
C      4.25547      0.13007      4.25547        -0.118614     -0.026037     -0.462572
C      3.19606     10.40319      7.29314         0.697775      0.015029     -0.265278
C      4.25547     10.35913      6.23373        -0.131594      0.028236      0.101564
C      3.19606      7.29314     10.40319         0.605560     -1.267724      0.027024
C      4.25547      6.23373     10.35913        -0.736568      0.824332      0.041060
C      7.29314      7.29314      0.08601        -0.649770     -0.168565     -0.023098
C      6.23373      6.23373      0.13007         0.168219      0.276334     -0.010028
C      3.19606      3.19606      0.08601         0.239940      0.249932     -0.020060
C      4.25547      4.25547      0.13007        -0.053403     -0.037202      0.014003
C      7.29314      3.19606     10.40319        -0.372833      0.787729      0.017296
C      6.23373      4.25547     10.35913         0.867211     -0.168041      0.011644
O     10.43466      3.58206      8.50569        -0.049333      0.034251      0.319189
O     10.54374     17.39634      8.50569        -0.022621     -0.182451      0.600073
O     10.54374      3.58206     12.47271         0.055349      0.065237     -0.326881
O     10.43466     17.39634     12.47271        -0.023101     -0.126895     -0.582936
O      8.50569     10.43466      3.58206         0.382488     -0.024719     -0.012989
O      8.50569     10.54374     17.39634         0.469161      0.053754     -0.143594
O     12.47271     10.54374      3.58206        -0.270601      0.052002     -0.083102
O     12.47271     10.43466     17.39634        -0.847934      0.020465     -0.222236
O      3.58206      8.50569     10.43466         0.039055      0.913750      0.042237
O     17.39634      8.50569     10.54374        -0.041157      0.340178      0.077925
O      3.58206     12.47271     10.54374         0.065973     -0.420561      0.063845
O     17.39634     12.47271     10.43466        -0.169727     -0.774575      0.017767
O      3.58206     10.43466      8.50569        -0.053704     -0.065096      0.231776
O     17.39634     10.54374      8.50569        -0.136803      0.042829      0.458160
O      3.58206     10.54374     12.47271        -0.025301     -0.052748     -0.897830
O     17.39634     10.43466     12.47271        -0.197800      0.043279     -0.766991
O     10.43466      8.50569      3.58206         0.042613      0.676279      0.190196
O     10.54374      8.50569     17.39634         0.052875      0.431118     -0.081121
O     10.54374     12.47271      3.58206        -0.006835     -0.721261      0.225767
O     10.43466     12.47271     17.39634         0.046954     -0.844203     -0.273847
O      8.50569      3.58206     10.43466         0.493900      0.077379     -0.039106
O      8.50569     17.39634     10.54374         0.648772     -0.248749     -0.059176
O     12.47271      3.58206     10.54374        -0.485891      0.163793      0.039930
O     12.47271     17.39634     10.43466        -0.532268     -0.038939     -0.030906
O     11.90042     11.90042     19.56718        -0.304710     -0.312564      0.265386
O     19.56718     19.56718     19.56718         0.287190      0.272554      0.320817
O     19.56718     11.90042     11.90042         0.280145     -0.330917     -0.245735
O     11.90042     19.56718     11.90042        -0.226028      0.291317     -0.240423
O      9.45224      1.03696      9.45224        -0.074348      0.047881     -0.066801
O      1.03696      9.45224      9.45224         0.058457     -0.142091     -0.055088
O      1.03696      1.03696      1.03696         0.047242      0.030288      0.185456
O      9.45224      9.45224      1.03696        -0.039782     -0.091237      0.121969
Zr     10.48920      2.52580     10.48920        -0.007729     -0.071963     -0.021897
Zr     10.48920     18.45260     10.48920         0.052606      0.301928     -0.075697
Zr     10.48920     10.48920      2.52580        -0.107275      0.017410     -0.365277
Zr     10.48920     10.48920     18.45260        -0.129970     -0.156657      0.322189
Zr      2.52580     10.48920     10.48920        -0.346145      0.319497     -0.477106
Zr     18.45260     10.48920     10.48920         0.243141      0.037494     -0.260711
Pd      9.05026     10.26769     13.32523        -0.015212     -0.016387      0.006082
Pd     10.58656      9.73342     11.00735        -0.007270     -0.013898     -0.047803
Pd     13.76273      8.53677     12.69230         0.007562      0.000884     -0.002717
Pd     11.00092     11.08227     15.01729         0.003247     -0.013740     -0.001041
Pd     12.83668     11.17097     13.00308         0.021585      0.004105      0.001942
Pd     14.97633     10.92977     11.34954         0.017457      0.008618     -0.003739
Pd      6.64830      7.42471     12.34164         0.006284      0.017819      0.001354
Pd      9.22697      7.25541     10.13779         0.004306      0.008774     -0.027075
Pd      9.25896      7.60980     12.80859         0.011009     -0.009206     -0.018456
Pd     11.69497      7.28603     11.47179         0.009038      0.001504     -0.005886
Pd     11.38687      7.99707      8.87092         0.032014     -0.006938     -0.007311
Pd      7.25949     11.83491     11.96229         0.004198     -0.001484     -0.011356
Pd      8.87803     14.66814      9.32375         0.032171      0.008294      0.008074
Pd      8.41934     12.65898     14.32344        -0.003210     -0.010844     -0.005463
Pd     13.47886     14.07774      8.59268         0.060271      0.025525     -0.047278
Pd     10.94026     13.31737      8.49365         0.075440      0.036406      0.035696
Pd     14.09168     11.50782      8.93182         0.011565      0.031047      0.000744
Pd      8.61266     14.11236     12.10384         0.011797     -0.009699     -0.004090
Pd     12.24492     13.73067     14.02320        -0.001202     -0.012676      0.008702
Pd     11.13495     14.44674     11.12364         0.024187     -0.019135      0.031038
Pd     14.06586     13.54122     12.17820        -0.012203      0.008509     -0.010179
Pd     12.31062     12.17434     10.66334        -0.008251     -0.024666      0.011036
Pd     12.66575     12.31281      6.72989         0.009080      0.033893     -0.018029
Pd     13.64492      8.93753      7.92387         0.034033      0.003596      0.014786
Pd      6.85844      8.45747      8.85450         0.011504      0.007579     -0.007455
Pd      5.52666      9.92035     11.29242         0.002171      0.025594     -0.045152
Pd      9.13486      9.75548      8.32343         0.024124     -0.011464     -0.012645
Pd      8.82873      7.24418      7.47797        -0.010947      0.007266     -0.030567
Pd      9.51465     12.08269     10.42324         0.009650      0.002868     -0.001351
Pd     11.52841     10.70391      8.59150         0.025608      0.011724     -0.031020
Pd     11.22158      9.24678      6.45033         0.043125     -0.023901     -0.013340
Pd      9.89519     11.56738      6.39610         0.023332     -0.033006     -0.024769
Ir     11.35295      9.08933     13.38265        -0.004688      0.023969     -0.042128
Ir     13.06881      9.47671     10.40300         0.006974      0.013097     -0.006957
Ir     10.53251     12.37221     12.70215        -0.003771     -0.025934      0.003127
Ir      7.11684     10.97172      9.52006         0.051605      0.026708     -0.029473
Ir      8.36783     12.44782      8.18998         0.050067      0.000803     -0.007846
Ir      8.06373      9.29349     11.11883        -0.003283      0.010159     -0.006853
