36
# total energy = -245.37483397 eVH      4.91429      4.31534      7.50000         0.003852     -0.005935      0.000000
H      4.91428      8.51182      7.50000         0.002368      0.005007      0.000000
H      1.28000      6.41354      7.50000        -0.005400     -0.000292      0.000000
H      6.19431      2.09821      7.50000        -0.003852      0.005935      0.000000
H      6.19431     -2.09827      7.50000        -0.002368     -0.005007      0.000000
H      9.82860      0.00001      7.50000         0.005400      0.000292      0.000000
C      6.73552     -1.16097      7.50000         0.004827      0.007718      0.000000
C      8.74626      0.00002      7.50000        -0.008897     -0.000023      0.000000
C      6.73543      1.16092      7.50000         0.006278     -0.010889      0.000000
C      4.37308      7.57452      7.50000        -0.004827     -0.007718      0.000000
C      2.36233      6.41353      7.50000         0.008897      0.000023      0.000000
C      4.37317      5.25263      7.50000        -0.006278      0.010889      0.000000
C     -0.00001      1.38524      7.50000         0.000012     -0.001179     -0.000000
C      9.90895      5.72092      7.50000         0.001070      0.000311      0.000000
C      1.19966     -0.69261      7.50000        -0.000863      0.000710      0.000000
C      0.00001     11.44186      7.50000        -0.000012      0.001179      0.000000
C      1.19965      0.69263      7.50000        -0.001070     -0.000311      0.000000
C      9.90893     -5.72094      7.50000         0.000863     -0.000710      0.000000
N      6.02927     -0.00011      7.50000        -0.011769      0.000261      0.000000
N      8.09405     -1.19205      7.50000         0.006521     -0.009654      0.000000
N      8.09393      1.19207      7.50000         0.003926      0.011056     -0.000000
N      5.07932      6.41366      7.50000         0.011769     -0.000261      0.000000
N      3.01455      7.60560      7.50000        -0.006521      0.009654      0.000000
N      3.01467      5.22148      7.50000        -0.003926     -0.011056     -0.000000
O     -0.00001      2.73749      7.50000        -0.000535     -0.003010      0.000000
O      8.73787      5.04480      7.50000         0.002799      0.001661     -0.000000
O      2.37074     -1.36874      7.50000        -0.002501      0.001582      0.000000
O      0.00001     10.08961      7.50000         0.000535      0.003010      0.000000
O      2.37073      1.36875      7.50000        -0.002799     -0.001661     -0.000000
O      8.73786     -5.04481      7.50000         0.002501     -0.001582      0.000000
Ir      4.02217      0.00025      7.50000         0.004792      0.003083      0.000000
Ir      9.09732     -2.93040      7.50000        -0.004823      0.002703      0.000000
Ir      9.09771      2.93014      7.50000        -0.000317     -0.005556      0.000000
Ir      7.08642      6.41330      7.50000        -0.004792     -0.003083      0.000000
Ir      2.01127      9.34395      7.50000         0.004823     -0.002703      0.000000
Ir      2.01089      3.48341      7.50000         0.000317      0.005556      0.000000
