152
# total energy = -1093.13164095 eVH     10.35389      5.87395      7.64558         0.104509     -0.121179      1.295682
H     10.62451     15.10445      7.64558        -0.175880      0.100548      1.416211
H     10.62451      5.87395     13.33282         0.158940     -0.049838     -1.146703
H     10.35389     15.10445     13.33282        -0.014875     -0.058124     -0.930561
H      7.64558     10.35389      5.87395         0.487286      0.017682     -0.066643
H      7.64558     10.62451     15.10445         0.410674      0.003934     -0.003867
H     13.33282     10.62451      5.87395        -0.662046     -0.040514      0.001837
H     13.33282     10.35389     15.10445        -0.421942     -0.000240     -0.000784
H      5.87395      7.64558     10.35389        -0.133689      1.327915      0.098856
H     15.10445      7.64558     10.62451        -0.008519      0.496082      0.032675
H      5.87395     13.33282     10.62451        -0.062824     -0.233889      0.034086
H     15.10445     13.33282     10.35389         0.240388     -1.617958      0.111924
H      5.87395     10.35389      7.64558        -0.108726     -0.673572      0.481184
H     15.10445     10.62451      7.64558         0.474306      0.827835      0.125579
H      5.87395     10.62451     13.33282        -0.023500     -0.190346     -0.283105
H     15.10445     10.35389     13.33282        -0.075773      0.217852     -0.108634
H     10.35389      7.64558      5.87395        -0.158923      0.445566      0.040825
H     10.62451      7.64558     15.10445         0.035016      0.531277      0.262734
H     10.62451     13.33282      5.87395         0.014697     -0.456915     -0.179920
H     10.35389     13.33282     15.10445        -0.168858     -0.546581      0.196479
H      7.64558      5.87395     10.35389         0.457418     -0.023259     -0.048847
H      7.64558     15.10445     10.62451         0.302588      0.023460     -0.030480
H     13.33282      5.87395     10.62451        -0.201199     -0.091155     -0.015816
H     13.33282     15.10445     10.35389        -0.512883      0.123851     -0.024963
H     12.45634     12.45634     19.01126         0.265454      0.246598     -0.244074
H     19.01126     19.01126     19.01126        -0.262395     -0.242690     -0.252362
H     19.01126     12.45634     12.45634        -0.263283      0.264347      0.232817
H     12.45634     19.01126     12.45634         0.274068     -0.254768      0.226533
C     10.35284      5.61067      6.59456        -0.207235     -0.284112     -1.759481
C     10.62556     15.36773      6.59456         0.440920      0.111946     -1.880454
C     10.62556      5.61067     14.38384        -0.354076     -0.107121      1.684032
C     10.35284     15.36773     14.38384         0.264829      0.138513      1.660652
C      6.59456     10.35284      5.61067        -0.862048     -0.108486     -0.304632
C      6.59456     10.62556     15.36773        -0.825531     -0.006792      0.102699
C     14.38384     10.62556      5.61067         1.031413      0.036070     -0.230127
C     14.38384     10.35284     15.36773         0.783123     -0.011175      0.182772
C      5.61067      6.59456     10.35284        -0.081050     -1.597759      0.026804
C     15.36773      6.59456     10.62556         0.282666     -0.960730      0.033522
C      5.61067     14.38384     10.62556        -0.394005      0.752960      0.036264
C     15.36773     14.38384     10.35284         0.033675      1.857083     -0.086995
C      5.61067     10.35284      6.59456        -0.709690      0.229028     -1.800419
C     15.36773     10.62556      6.59456         0.764066     -0.217721     -1.986840
C      5.61067     10.62556     14.38384        -0.655514      0.094391      1.655908
C     15.36773     10.35284     14.38384         0.599010     -0.072046      1.437186
C     10.35284      6.59456      5.61067         0.028801     -1.572624     -0.771723
C     10.62556      6.59456     15.36773        -0.037644     -1.854414      0.736689
C     10.62556     14.38384      5.61067         0.100912      1.809614     -0.871567
C     10.35284     14.38384     15.36773         0.039836      1.879806      0.647476
C      6.59456      5.61067     10.35284        -0.798562     -0.811677     -0.026711
C      6.59456     15.36773     10.62556        -1.043388      0.561206      0.072721
C     14.38384      5.61067     10.62556         1.000697     -0.741284      0.088541
C     14.38384     15.36773     10.35284         0.897358      0.956377      0.010389
C     10.40319      3.19606      7.29314        -0.004006      0.529945     -0.542621
C     10.35913      4.25547      6.23373        -0.020496     -0.831864      0.515437
C      0.08601      7.29314      7.29314         0.018474     -0.480204     -0.585839
C      0.13007      6.23373      6.23373         0.043237      0.890322      0.463208
C      0.08601      3.19606      3.19606         0.024619      0.694605      0.444968
C      0.13007      4.25547      4.25547        -0.043272     -0.760842     -0.487167
C     10.40319      7.29314      3.19606        -0.011440     -0.736490      0.493150
C     10.35913      6.23373      4.25547         0.017921      0.581204     -0.509226
C      7.29314     10.40319      3.19606        -0.302889     -0.008530      0.573093
C      6.23373     10.35913      4.25547         0.179198     -0.072954     -0.170064
C      7.29314      0.08601      7.29314        -0.236067     -0.030881     -0.393727
C      6.23373      0.13007      6.23373         0.153210     -0.097772      0.369952
C      3.19606      0.08601      3.19606         0.405097      0.010876      0.437378
C      4.25547      0.13007      4.25547        -0.192433      0.073130     -0.211947
C      3.19606     10.40319      7.29314         0.249897      0.028093     -0.464967
C      4.25547     10.35913      6.23373        -0.168351      0.108151      0.373968
C      3.19606      7.29314     10.40319         0.186087     -0.311703      0.001592
C      4.25547      6.23373     10.35913        -0.579791      0.190783      0.049015
C      7.29314      7.29314      0.08601        -0.587520     -0.468915      0.004750
C      6.23373      6.23373      0.13007         0.122604      0.217682     -0.058646
C      3.19606      3.19606      0.08601         0.559441      0.422984      0.001453
C      4.25547      4.25547      0.13007        -0.057231     -0.095461     -0.031388
C      7.29314      3.19606     10.40319        -0.213787      0.364212      0.001688
C      6.23373      4.25547     10.35913         0.634041     -0.260395      0.024000
O     10.43466      3.58206      8.50569         0.013466      0.230214      0.482799
O     10.54374     17.39634      8.50569        -0.032209     -0.236694      0.514150
O     10.54374      3.58206     12.47271         0.078765      0.156761     -0.378717
O     10.43466     17.39634     12.47271        -0.106785     -0.143124     -0.376561
O      8.50569     10.43466      3.58206         0.394298     -0.020514      0.061083
O      8.50569     10.54374     17.39634         0.453275      0.059551     -0.121363
O     12.47271     10.54374      3.58206        -0.506599     -0.010700      0.113596
O     12.47271     10.43466     17.39634        -0.441922     -0.053555     -0.118101
O      3.58206      8.50569     10.43466         0.168931      0.421850     -0.049966
O     17.39634      8.50569     10.54374        -0.085458      0.560838      0.046114
O      3.58206     12.47271     10.54374         0.049690     -0.516841      0.042016
O     17.39634     12.47271     10.43466        -0.176302     -0.464656     -0.021432
O      3.58206     10.43466      8.50569         0.174251     -0.017397      0.475066
O     17.39634     10.54374      8.50569        -0.124320     -0.012486      0.456917
O      3.58206     10.54374     12.47271         0.172243      0.086306     -0.451929
O     17.39634     10.43466     12.47271        -0.203483     -0.078642     -0.564877
O     10.43466      8.50569      3.58206         0.050097      0.619550      0.263093
O     10.54374      8.50569     17.39634         0.061090      0.502300     -0.215383
O     10.54374     12.47271      3.58206        -0.014949     -0.654503      0.275517
O     10.43466     12.47271     17.39634        -0.030943     -0.529831     -0.225022
O      8.50569      3.58206     10.43466         0.514970      0.149754     -0.029845
O      8.50569     17.39634     10.54374         0.614975     -0.094715      0.047407
O     12.47271      3.58206     10.54374        -0.632004      0.114714      0.028749
O     12.47271     17.39634     10.43466        -0.495621     -0.140806     -0.016039
O     11.90042     11.90042     19.56718        -0.311458     -0.284786      0.270612
O     19.56718     19.56718     19.56718         0.311113      0.270174      0.289704
O     19.56718     11.90042     11.90042         0.316672     -0.312808     -0.235241
O     11.90042     19.56718     11.90042        -0.331975      0.281193     -0.225648
O      9.45224      1.03696      9.45224        -0.039578      0.054909     -0.065870
O      1.03696      9.45224      9.45224         0.028268     -0.082739     -0.060215
O      1.03696      1.03696      1.03696         0.027293      0.048773      0.133389
O      9.45224      9.45224      1.03696        -0.031889     -0.086078      0.132868
Zr     10.48920      2.52580     10.48920        -0.100958     -0.120294     -0.008994
Zr     10.48920     18.45260     10.48920         0.127093      0.192337     -0.103307
Zr     10.48920     10.48920      2.52580         0.002865      0.095213     -0.322220
Zr     10.48920     10.48920     18.45260        -0.022334     -0.012204      0.149059
Zr      2.52580     10.48920     10.48920        -0.029338     -0.024801     -0.059249
Zr     18.45260     10.48920     10.48920         0.113225      0.115798     -0.157749
Pd     12.96992      8.07742      7.66919         0.052849      0.024195     -0.052886
Pd      9.57497     14.59136     11.74246        -0.007388     -0.003699     -0.004070
Pd     12.34411     10.90724     10.42488        -0.040950      0.007107      0.066062
Pd     14.69759     10.03957     11.57883        -0.038123     -0.054455     -0.025026
Pd     10.98010      9.30094      6.17735        -0.019744      0.010451     -0.011531
Pd      6.93310      8.50495      8.98137         0.038081     -0.011920      0.022337
Ir     10.26806     11.86247     11.75389         0.038807     -0.030001      0.035361
Ir     12.93251      8.30138     10.34209         0.022428      0.010777     -0.038647
Ir     12.31588     11.00239      7.73790        -0.038215     -0.037912     -0.055658
Ir      9.67753     14.39216      9.14788         0.000034     -0.038575      0.032276
Ir     10.81184      9.19754     11.72709         0.014202      0.008897     -0.077446
Ir      8.70502     10.06154      7.77066         0.024323     -0.028001     -0.004407
Ir     13.87503     12.54207      9.03401         0.010609     -0.024942     -0.002861
Ir     11.97252     13.58406      7.80801        -0.006872     -0.003552     -0.016530
Ir     14.30989      9.91774      9.02425        -0.003112     -0.015722      0.002333
Ir      9.22910      7.44335     10.40159         0.000198     -0.035314     -0.027163
Ir      8.16416     12.72245      7.82710        -0.003664      0.054603      0.029502
Ir      9.17843      7.58924      7.82946        -0.023958      0.060395      0.012108
Ir     11.85460     13.52368     13.02378         0.054432     -0.001118      0.007524
Ir     11.41443      6.70522     11.72712         0.018902     -0.032139      0.015964
Ir     10.25309     11.82245      9.08006        -0.067136     -0.022546     -0.001492
Ir     12.93177      8.34156     12.98478        -0.022717     -0.011304     -0.021511
Ir     10.83813      9.16274      8.99801        -0.031891     -0.021949     -0.027561
Ir     11.79444     13.59812     10.40178        -0.019651     -0.024589      0.037872
Ir     13.83785     12.64247     11.78196        -0.047727     -0.030703      0.041880
Ir     12.39415     10.99836     13.08319        -0.000436      0.029220     -0.035572
Ir     10.14023     11.70144      6.49407         0.004913     -0.018495     -0.022408
Ir     11.33710      6.59166      9.22046        -0.054721     -0.019017      0.021035
Ir      7.21054      8.35827     11.80125        -0.021573      0.022538      0.005648
Ir      8.18814     12.71454     10.43113        -0.004100      0.014726     -0.018252
Ir     10.91349      9.26789     14.28181        -0.049510      0.017469     -0.021975
Ir      8.10382     12.53695     12.98634        -0.021121      0.032685      0.060031
Ir      6.59754     11.21708      9.09549        -0.078696      0.014324     -0.021092
Ir      8.67480     10.03967     13.06835        -0.009890      0.019321      0.005197
Ir      6.59561     10.90572     11.55598        -0.025090      0.020949      0.001464
Ir      9.13933      7.46130     13.05668         0.010567      0.007911     -0.023984
Ir     10.21781     11.65459     14.36070        -0.050614      0.032952      0.012093
Ir      8.73005     10.06203     10.41183        -0.003035     -0.047578     -0.048455
