152
# total energy = -1060.15772349 eVH     10.35389      5.87395      7.64558        -0.319305      0.101520      1.088050
H     10.62451     15.10445      7.64558         0.078698     -0.070233      0.899512
H     10.62451      5.87395     13.33282        -0.269471      0.073653     -0.780487
H     10.35389     15.10445     13.33282         0.092035     -0.302354     -0.818994
H      7.64558     10.35389      5.87395         0.891149     -0.198466      0.208837
H      7.64558     10.62451     15.10445         0.315085     -0.028552     -0.059796
H     13.33282     10.62451      5.87395        -0.885937      0.218473      0.220398
H     13.33282     10.35389     15.10445        -0.282411     -0.028023     -0.060757
H      5.87395      7.64558     10.35389         0.092284      0.420316     -0.012765
H     15.10445      7.64558     10.62451        -0.044378      0.439601     -0.026348
H      5.87395     13.33282     10.62451        -0.022540     -0.968835      0.076689
H     15.10445     13.33282     10.35389        -0.085035     -0.325239      0.003451
H      5.87395     10.35389      7.64558         0.318252      0.062280      0.370577
H     15.10445     10.62451      7.64558        -0.121696     -0.159158      0.664850
H      5.87395     10.62451     13.33282        -0.062077      0.451638     -0.597567
H     15.10445     10.35389     13.33282         0.222017     -0.635337     -0.869368
H     10.35389      7.64558      5.87395        -0.021431      0.501183      0.346111
H     10.62451      7.64558     15.10445         0.337546      0.791576     -0.001833
H     10.62451     13.33282      5.87395         0.149914     -0.568620      0.203011
H     10.35389     13.33282     15.10445         0.034760     -0.287704     -0.166082
H      7.64558      5.87395     10.35389         0.369086      0.114819      0.064169
H      7.64558     15.10445     10.62451         0.385197     -0.126433      0.181005
H     13.33282      5.87395     10.62451        -0.307728      0.137540     -0.012856
H     13.33282     15.10445     10.35389        -0.657938     -0.106891      0.138590
H     12.45634     12.45634     19.01126         0.257580      0.272739     -0.225508
H     19.01126     19.01126     19.01126        -0.249357     -0.266728     -0.243490
H     19.01126     12.45634     12.45634        -0.250467      0.271948      0.237671
H     12.45634     19.01126     12.45634         0.288410     -0.234236      0.236328
C     10.35284      5.61067      6.59456         0.401743     -0.421035     -1.360034
C     10.62556     15.36773      6.59456        -0.170591      0.612094     -0.664150
C     10.62556      5.61067     14.38384         0.364179     -0.276036      0.774327
C     10.35284     15.36773     14.38384        -0.206089      0.216184      1.020305
C      6.59456     10.35284      5.61067        -1.390442      0.031007     -0.225386
C      6.59456     10.62556     15.36773        -0.670627      0.065479      0.356427
C     14.38384     10.62556      5.61067         1.309290     -0.184268     -0.627654
C     14.38384     10.35284     15.36773         0.315538     -0.130556      0.351113
C      5.61067      6.59456     10.35284        -0.276588     -0.670694     -0.028727
C     15.36773      6.59456     10.62556         0.408292     -0.859219      0.027227
C      5.61067     14.38384     10.62556        -0.148745      1.198370     -0.216792
C     15.36773     14.38384     10.35284         0.501491      0.703514     -0.036280
C      5.61067     10.35284      6.59456        -0.375351     -0.101822     -0.784362
C     15.36773     10.62556      6.59456         0.399834      0.108505     -0.679829
C      5.61067     10.62556     14.38384        -0.412991     -0.162005      1.217295
C     15.36773     10.35284     14.38384         0.234641      0.226027      1.414923
C     10.35284      6.59456      5.61067        -0.072023     -0.745746     -0.545550
C     10.62556      6.59456     15.36773        -0.146216     -0.984434      0.376742
C     10.62556     14.38384      5.61067        -0.495904      0.381084     -0.738137
C     10.35284     14.38384     15.36773        -0.177809      0.750650      0.499995
C      6.59456      5.61067     10.35284        -0.562640     -0.333986      0.005122
C      6.59456     15.36773     10.62556        -0.362731      0.446593      0.065385
C     14.38384      5.61067     10.62556         0.431937     -0.311649      0.009001
C     14.38384     15.36773     10.35284         1.128541      0.489268     -0.077825
C     10.40319      3.19606      7.29314        -0.008591      0.777158     -0.334281
C     10.35913      4.25547      6.23373         0.020660     -0.379560      0.292849
C      0.08601      7.29314      7.29314        -0.020118     -0.377470     -0.504768
C      0.13007      6.23373      6.23373        -0.048639      0.881740      0.094501
C      0.08601      3.19606      3.19606        -0.008742      0.693707      0.260422
C      0.13007      4.25547      4.25547         0.044427     -0.264732     -0.546472
C     10.40319      7.29314      3.19606        -0.065181     -1.111074      0.623141
C     10.35913      6.23373      4.25547        -0.048534      0.347276     -0.200829
C      7.29314     10.40319      3.19606        -1.091070     -0.054038      0.203061
C      6.23373     10.35913      4.25547         0.376202      0.102184     -0.516975
C      7.29314      0.08601      7.29314        -0.478601      0.029402     -0.444358
C      6.23373      0.13007      6.23373         0.179286      0.122993      0.122017
C      3.19606      0.08601      3.19606         0.695986      0.023435      0.173559
C      4.25547      0.13007      4.25547        -0.174363     -0.050167     -0.362276
C      3.19606     10.40319      7.29314         0.364392     -0.025821     -0.949724
C      4.25547     10.35913      6.23373        -0.128864     -0.054385      0.115265
C      3.19606      7.29314     10.40319         0.616190     -0.398664      0.003397
C      4.25547      6.23373     10.35913        -0.116895      0.176920      0.011763
C      7.29314      7.29314      0.08601        -0.429771     -0.295851     -0.014299
C      6.23373      6.23373      0.13007         0.149805      0.154111     -0.063644
C      3.19606      3.19606      0.08601         0.292849      0.492460     -0.024049
C      4.25547      4.25547      0.13007        -0.406846     -0.240623     -0.030211
C      7.29314      3.19606     10.40319        -0.285666      0.596086     -0.009046
C      6.23373      4.25547     10.35913         0.014313     -0.092150      0.015309
O     10.43466      3.58206      8.50569        -0.027887      0.075720      0.305755
O     10.54374     17.39634      8.50569         0.062530     -0.123539      0.593682
O     10.54374      3.58206     12.47271         0.027778      0.102762     -0.397238
O     10.43466     17.39634     12.47271         0.093101     -0.063297     -0.434746
O      8.50569     10.43466      3.58206         0.731407     -0.071663      0.017089
O      8.50569     10.54374     17.39634         0.533131      0.062111     -0.105306
O     12.47271     10.54374      3.58206        -0.655331      0.114656      0.210044
O     12.47271     10.43466     17.39634        -0.280054      0.004776      0.036828
O      3.58206      8.50569     10.43466         0.032313      0.445618     -0.062601
O     17.39634      8.50569     10.54374        -0.054635      0.446598      0.057309
O      3.58206     12.47271     10.54374         0.103282     -0.586812      0.004741
O     17.39634     12.47271     10.43466        -0.181246     -0.739797     -0.048318
O      3.58206     10.43466      8.50569         0.207954     -0.060406      0.808678
O     17.39634     10.54374      8.50569        -0.071544      0.072597      0.491365
O      3.58206     10.54374     12.47271        -0.003922     -0.004721     -0.263955
O     17.39634     10.43466     12.47271         0.033567     -0.009259     -0.233406
O     10.43466      8.50569      3.58206        -0.110252      0.532772     -0.100555
O     10.54374      8.50569     17.39634         0.057181      0.510416     -0.085981
O     10.54374     12.47271      3.58206         0.101434     -0.635258      0.130688
O     10.43466     12.47271     17.39634        -0.068093     -0.687201     -0.273741
O      8.50569      3.58206     10.43466         0.395473      0.023295     -0.045527
O      8.50569     17.39634     10.54374         0.639864     -0.153721      0.046577
O     12.47271      3.58206     10.54374        -0.518868      0.122013      0.029320
O     12.47271     17.39634     10.43466        -0.627377     -0.123808      0.042014
O     11.90042     11.90042     19.56718        -0.280025     -0.303209      0.223445
O     19.56718     19.56718     19.56718         0.308417      0.322813      0.298324
O     19.56718     11.90042     11.90042         0.282332     -0.324315     -0.235068
O     11.90042     19.56718     11.90042        -0.315906      0.229643     -0.201232
O      9.45224      1.03696      9.45224        -0.075403      0.087704     -0.079442
O      1.03696      9.45224      9.45224         0.099092     -0.107771     -0.061524
O      1.03696      1.03696      1.03696         0.077904      0.055216      0.098094
O      9.45224      9.45224      1.03696        -0.060466     -0.125199      0.136307
Zr     10.48920      2.52580     10.48920         0.042683     -0.094118      0.123564
Zr     10.48920     18.45260     10.48920        -0.184879      0.247382     -0.358498
Zr     10.48920     10.48920      2.52580         0.111646      0.358063     -0.342527
Zr     10.48920     10.48920     18.45260        -0.079698     -0.259313      0.234570
Zr      2.52580     10.48920     10.48920        -0.242152      0.132314      0.246381
Zr     18.45260     10.48920     10.48920         0.192393     -0.137704     -0.018987
Pd      9.36135     14.30240      9.31030         0.007447     -0.005029      0.013797
Pd      8.58946     13.63521     13.05291         0.003891      0.004157      0.009127
Pd     12.02482     14.40643      8.74400        -0.006805     -0.004301      0.002101
Pd     12.75284     12.87506     10.67756         0.028376      0.017708      0.002800
Pd     12.12041      7.19382     12.67620        -0.002076      0.001006      0.003722
Pd     11.15926     14.90428     11.45231        -0.005937      0.010919     -0.011419
Pd     10.03146     12.55741     11.08860         0.010533     -0.011443     -0.000616
Pd     13.48328     12.15712      7.98352         0.005647      0.004908     -0.005590
Pd     11.48063     11.54460      6.11034        -0.001780      0.002113      0.001180
Pd      7.94270      8.37453      7.52314        -0.000382     -0.002089     -0.005432
Pd      8.72168     11.75804      6.84691         0.003955     -0.004296     -0.009570
Pd     10.31863      9.45480      8.15272         0.004068      0.003767     -0.004692
Pd      8.49649     14.46470      6.78902        -0.001493      0.001951     -0.004003
Pd     12.39511      9.02219      6.57557        -0.002892     -0.004373      0.000129
Pd      9.71980      9.61039      5.57381        -0.001206      0.003189      0.005054
Pd      6.81272      9.45013     12.13716         0.004538      0.007287     -0.009747
Pd     12.17934      6.74226      7.95283         0.002508      0.003076      0.001522
Pd      5.91530     10.48331      9.68932         0.002926     -0.002123      0.000805
Pd      7.54998      7.23851     13.40469         0.007004      0.005949     -0.004513
Ir     11.73620      9.77796     13.06706        -0.006292      0.002668     -0.006451
Ir     13.55290      9.05790     11.47733        -0.007361     -0.010100      0.000211
Ir      9.42582      8.86195     14.01020        -0.001491      0.004916     -0.011915
Ir     10.50219     11.02590     14.88002        -0.007850     -0.017473      0.037829
Ir      7.26686     12.01621     11.34039         0.018752     -0.017832      0.023076
Ir     14.65342     10.91026     10.15084         0.013499      0.013101     -0.001993
Ir     12.16756     10.56794      9.67219         0.014530     -0.034710      0.013771
Ir      8.74230     10.99544     12.98918        -0.026396     -0.010107     -0.039499
Ir     10.10916      9.92019     11.17238        -0.025777     -0.005056      0.015926
Ir     13.73955     11.42041     12.48619        -0.035405      0.014419      0.027382
Ir     11.59184     12.35739     13.08409         0.005170     -0.014334      0.019872
Ir      8.49851     11.10132      9.33594         0.021989     -0.042719      0.020573
Ir     11.59384      8.02725     10.14304         0.019551      0.013570      0.009005
Ir      7.21995     13.03243      8.65748        -0.025203      0.028184     -0.003809
Ir      9.54952      6.96173      9.24061        -0.002045     -0.017282     -0.017960
Ir      8.05524      8.76429     10.05662        -0.005822      0.040479      0.011949
Ir     10.72457     12.12271      8.50613        -0.010595      0.017042     -0.007659
Ir      9.51601      7.57488     11.75499        -0.009777      0.008759      0.022602
Ir     13.67307      8.79044      8.84401        -0.004756      0.008005      0.005422
