33
# total energy = -231.16779405 eVH      9.31217      4.28439      7.50000        -0.000007      0.003164      0.000000
H      0.89003      5.91781      7.50000         0.000007     -0.003164     -0.000000
H      5.91781      9.31217      7.50000        -0.003164     -0.000007      0.000000
H      4.28439      0.89003      7.50000         0.003164      0.000007     -0.000000
H      0.89003      4.28439      7.50000         0.000007      0.003164     -0.000000
H      9.31217      5.91781      7.50000        -0.000007     -0.003164      0.000000
H      4.28439      9.31217      7.50000         0.003164     -0.000007     -0.000000
H      5.91781      0.89003      7.50000        -0.003164      0.000007      0.000000
C     -0.00000      1.94673      7.50000        -0.000000      0.051825     -0.000000
C     -0.00000      8.25547      7.50000         0.000000     -0.051825      0.000000
C      8.25547     -0.00000      7.50000        -0.051825      0.000000     -0.000000
C      1.94673     -0.00000      7.50000         0.051825      0.000000     -0.000000
C      8.83740      2.45116      7.50000         0.009230     -0.063522      0.000000
C      1.36480      7.75104      7.50000        -0.009230      0.063522     -0.000000
C      7.75104      8.83740      7.50000         0.063522      0.009230     -0.000000
C      2.45116      1.36480      7.50000        -0.063522     -0.009230      0.000000
C      1.36480      2.45116      7.50000        -0.009230     -0.063522      0.000000
C      8.83740      7.75104      7.50000         0.009230      0.063522      0.000000
C      2.45116      8.83740      7.50000        -0.063522      0.009230     -0.000000
C      7.75104      1.36480      7.50000         0.063522     -0.009230      0.000000
N      8.45736      3.72151      7.50000         0.045069      0.052131      0.000000
N      1.74484      6.48069      7.50000        -0.045069     -0.052131     -0.000000
N      6.48069      8.45736      7.50000        -0.052131      0.045069     -0.000000
N      3.72151      1.74484      7.50000         0.052131     -0.045069     -0.000000
N      1.74484      3.72151      7.50000        -0.045069      0.052131     -0.000000
N      8.45736      6.48069      7.50000         0.045069     -0.052131     -0.000000
N      3.72151      8.45736      7.50000         0.052131      0.045069      0.000000
N      6.48069      1.74484      7.50000        -0.052131     -0.045069     -0.000000
Ir      5.10110      6.75740      7.50000         0.000000      0.028571      0.000000
Ir      5.10110      3.44480      7.50000        -0.000000     -0.028571     -0.000000
Ir      3.44480      5.10110      7.50000        -0.028571     -0.000000     -0.000000
Ir      6.75740      5.10110      7.50000         0.028571      0.000000      0.000000
Ir     -0.00000     -0.00000      7.50000        -0.000000     -0.000000     -0.000000
