152
# total energy = -1024.32155974 eVH     10.35389      5.87395      7.64558         0.470774      0.039772      0.743534
H     10.62451     15.10445      7.64558         0.017600     -0.189441      0.591750
H     10.62451      5.87395     13.33282         0.103068      0.159173     -0.576652
H     10.35389     15.10445     13.33282        -0.434074     -0.048330     -0.776134
H      7.64558     10.35389      5.87395         0.341978      0.012587      0.169831
H      7.64558     10.62451     15.10445         0.892866     -0.336735     -0.011327
H     13.33282     10.62451      5.87395        -0.760472     -0.057512      0.156698
H     13.33282     10.35389     15.10445        -0.875447     -0.399034      0.200563
H      5.87395      7.64558     10.35389         0.204669      0.641653     -0.138195
H     15.10445      7.64558     10.62451        -0.139720      0.395947     -0.040290
H      5.87395     13.33282     10.62451         0.161068     -0.525490     -0.114882
H     15.10445     13.33282     10.35389        -0.082444     -1.180200      0.018767
H      5.87395     10.35389      7.64558         0.133489      0.145330      0.519819
H     15.10445     10.62451      7.64558         0.011699      0.104513      1.028471
H      5.87395     10.62451     13.33282         0.102044     -0.052619     -0.419709
H     15.10445     10.35389     13.33282        -0.125712     -0.167677     -0.541386
H     10.35389      7.64558      5.87395         0.039843      0.975281      0.239036
H     10.62451      7.64558     15.10445         0.008823      0.276635     -0.174139
H     10.62451     13.33282      5.87395        -0.091033     -0.423664      0.321867
H     10.35389     13.33282     15.10445        -0.458907     -0.635404     -0.017077
H      7.64558      5.87395     10.35389         0.483549      0.115102      0.006854
H      7.64558     15.10445     10.62451         0.894286     -0.251955     -0.065875
H     13.33282      5.87395     10.62451        -0.583331      0.131315     -0.075636
H     13.33282     15.10445     10.35389        -0.624138     -0.054376      0.229567
H     12.45634     12.45634     19.01126         0.237266      0.276414     -0.235878
H     19.01126     19.01126     19.01126        -0.251657     -0.246612     -0.242887
H     19.01126     12.45634     12.45634        -0.263423      0.267294      0.220941
H     12.45634     19.01126     12.45634         0.233250     -0.264847      0.241115
C     10.35284      5.61067      6.59456        -0.194513     -0.635168      0.069489
C     10.62556     15.36773      6.59456        -0.025869      0.377615     -0.777107
C     10.62556      5.61067     14.38384        -0.008928     -0.064256      0.697460
C     10.35284     15.36773     14.38384         0.148958      0.728366      0.191168
C      6.59456     10.35284      5.61067        -0.361858     -0.021670     -0.282133
C      6.59456     10.62556     15.36773        -1.023316      0.340990      0.352683
C     14.38384     10.62556      5.61067         0.407945      0.335417     -0.621474
C     14.38384     10.35284     15.36773         0.984919     -0.005425      0.323006
C      5.61067      6.59456     10.35284        -0.371988     -0.420665      0.318384
C     15.36773      6.59456     10.62556         0.193865     -0.516050      0.027942
C      5.61067     14.38384     10.62556        -0.193012      0.590080      0.013912
C     15.36773     14.38384     10.35284         0.352392      0.045591     -0.157230
C      5.61067     10.35284      6.59456        -0.315993     -0.071723     -0.962945
C     15.36773     10.62556      6.59456         0.806083     -0.325420     -0.976881
C      5.61067     10.62556     14.38384        -0.479189      0.014522      0.277503
C     15.36773     10.35284     14.38384         0.664604     -0.099018      1.094704
C     10.35284      6.59456      5.61067        -0.248315     -0.600111     -0.867301
C     10.62556      6.59456     15.36773         0.051684     -0.287360      0.067147
C     10.62556     14.38384      5.61067         0.096023      1.196384     -0.430814
C     10.35284     14.38384     15.36773         0.224397      0.126295      0.713662
C      6.59456      5.61067     10.35284        -0.308617     -0.734483      0.089872
C      6.59456     15.36773     10.62556        -1.200866      0.274505      0.101442
C     14.38384      5.61067     10.62556         0.948155     -0.286200      0.027918
C     14.38384     15.36773     10.35284        -0.519394      0.770485     -0.363804
C     10.40319      3.19606      7.29314        -0.017342      0.835893     -0.393058
C     10.35913      4.25547      6.23373         0.051122     -0.468446      0.567442
C      0.08601      7.29314      7.29314        -0.018148     -0.477504     -0.347166
C      0.13007      6.23373      6.23373        -0.019777      0.018207      0.097275
C      0.08601      3.19606      3.19606         0.001655      1.238692      0.190954
C      0.13007      4.25547      4.25547        -0.050340     -0.217156     -0.213234
C     10.40319      7.29314      3.19606        -0.004337     -1.030293      0.386192
C     10.35913      6.23373      4.25547         0.029566      0.468410     -0.648569
C      7.29314     10.40319      3.19606        -0.353704      0.040739      0.768355
C      6.23373     10.35913      4.25547         0.199510      0.087147     -0.105803
C      7.29314      0.08601      7.29314        -0.594292     -0.022170     -0.266822
C      6.23373      0.13007      6.23373         0.385452     -0.069778      0.465084
C      3.19606      0.08601      3.19606         0.931170     -0.010070      0.318157
C      4.25547      0.13007      4.25547        -0.109258     -0.041579     -0.510354
C      3.19606     10.40319      7.29314         0.455494     -0.005433     -0.822240
C      4.25547     10.35913      6.23373        -0.263692      0.103498      0.252267
C      3.19606      7.29314     10.40319         0.494041     -1.326791     -0.043461
C      4.25547      6.23373     10.35913        -0.420018      0.804574      0.074146
C      7.29314      7.29314      0.08601        -0.401354     -0.224022     -0.006348
C      6.23373      6.23373      0.13007         0.159237      0.145173     -0.010076
C      3.19606      3.19606      0.08601         0.247910      0.261650     -0.018975
C      4.25547      4.25547      0.13007        -0.109102     -0.052509      0.015556
C      7.29314      3.19606     10.40319        -0.367196      0.666927      0.009338
C      6.23373      4.25547     10.35913         1.113686      0.010136      0.024285
O     10.43466      3.58206      8.50569        -0.029282      0.054674      0.444903
O     10.54374     17.39634      8.50569        -0.004938     -0.090494      0.437566
O     10.54374      3.58206     12.47271         0.043726     -0.097180     -0.140467
O     10.43466     17.39634     12.47271        -0.057726     -0.050938     -0.475800
O      8.50569     10.43466      3.58206         0.308847     -0.032713     -0.039382
O      8.50569     10.54374     17.39634         0.683048      0.026483     -0.174934
O     12.47271     10.54374      3.58206        -0.746694     -0.038559      0.143511
O     12.47271     10.43466     17.39634        -0.403513     -0.026449     -0.021698
O      3.58206      8.50569     10.43466         0.145704      1.081290     -0.010316
O     17.39634      8.50569     10.54374        -0.089991      0.414882      0.062462
O      3.58206     12.47271     10.54374         0.068699     -0.408374      0.039349
O     17.39634     12.47271     10.43466        -0.162208     -0.690959     -0.000131
O      3.58206     10.43466      8.50569         0.037655     -0.072243      0.698021
O     17.39634     10.54374      8.50569        -0.069281      0.044104      0.343093
O      3.58206     10.54374     12.47271        -0.008929      0.028931     -0.288171
O     17.39634     10.43466     12.47271        -0.245905      0.013589     -0.725943
O     10.43466      8.50569      3.58206         0.112779      0.827875      0.195964
O     10.54374      8.50569     17.39634         0.036600      0.668062     -0.160562
O     10.54374     12.47271      3.58206        -0.008668     -1.015588      0.198943
O     10.43466     12.47271     17.39634        -0.028354     -0.896204     -0.200298
O      8.50569      3.58206     10.43466         0.533615      0.109339     -0.017513
O      8.50569     17.39634     10.54374         0.522150     -0.207334     -0.012238
O     12.47271      3.58206     10.54374        -0.465326      0.156392      0.056799
O     12.47271     17.39634     10.43466        -0.393712      0.033857     -0.008262
O     11.90042     11.90042     19.56718        -0.271742     -0.325527      0.258495
O     19.56718     19.56718     19.56718         0.281929      0.286322      0.286524
O     19.56718     11.90042     11.90042         0.293822     -0.302933     -0.201089
O     11.90042     19.56718     11.90042        -0.269603      0.281139     -0.247315
O      9.45224      1.03696      9.45224        -0.083249      0.051111     -0.056162
O      1.03696      9.45224      9.45224         0.035617     -0.166375     -0.115622
O      1.03696      1.03696      1.03696         0.010310      0.116913      0.208688
O      9.45224      9.45224      1.03696        -0.063930     -0.087126      0.127455
Zr     10.48920      2.52580     10.48920        -0.034519     -0.119591     -0.169609
Zr     10.48920     18.45260     10.48920         0.019858      0.228459     -0.029631
Zr     10.48920     10.48920      2.52580        -0.112168     -0.179521     -0.535647
Zr     10.48920     10.48920     18.45260        -0.040533      0.027293      0.467909
Zr      2.52580     10.48920     10.48920        -0.366419      0.300402      0.131915
Zr     18.45260     10.48920     10.48920         0.204042      0.044406     -0.233762
Pd      8.52661      9.87720     13.23047        -0.032267     -0.024398      0.032241
Pd     10.52913      9.50192     10.24443        -0.026472     -0.043714      0.002892
Pd     13.28954      8.72569     12.46192        -0.012773      0.000422      0.024323
Pd     10.43115     10.66852     15.07690        -0.046026      0.027875      0.016976
Pd     12.94229     11.35239     13.49014        -0.026783      0.007304     -0.009955
Pd     14.91262     10.69098     11.31718        -0.007483      0.001198     -0.000856
Pd      6.84422      7.77958     12.44307        -0.012010     -0.032292     -0.005652
Pd      9.21456      7.24826      9.55567         0.022311     -0.039817     -0.041586
Pd      9.52146      7.56527     12.27719         0.029520     -0.023225     -0.012749
Pd     11.74229      7.16249     10.90384        -0.005107      0.010910      0.007335
Pd     11.61459      7.84747      8.32463        -0.015154     -0.001314     -0.023261
Pd      7.15761     11.74201     11.59985        -0.001318     -0.023342     -0.025405
Pd      9.22196     14.31988      9.33606         0.008492      0.066777      0.007496
Pd      8.13442     12.38692     14.16820         0.022752     -0.000114     -0.006991
Pd     14.19089     14.22482      8.33862        -0.001766     -0.032367      0.015850
Pd     11.69546     13.34738      8.82171         0.002243     -0.003389     -0.004328
Pd     14.09702     11.64844      8.97214         0.008083     -0.009094     -0.027799
Pd      8.73201     13.95049     12.11772        -0.001443      0.010600     -0.030848
Pd     12.19590     13.93041     13.97015         0.031117      0.000415     -0.029487
Pd     11.37126     14.10687     11.35104         0.037253     -0.015910      0.005822
Pd     14.00809     13.38493     12.08504         0.005896     -0.000146      0.023135
Pd     12.29100     11.57211     10.89186         0.039290      0.006686      0.027194
Pd     12.94029     12.63010      6.60459        -0.011468     -0.009928      0.000770
Pd     13.94068      8.85122      7.58051        -0.022834      0.018466     -0.001137
Pd      6.96896      8.48325      8.47186         0.000584     -0.028131     -0.011347
Pd      5.55449     10.04577     10.17716         0.001243     -0.005763     -0.044084
Pd      9.38464      9.48046      7.52682        -0.026648     -0.007854      0.026510
Pd      8.49667      6.99583      6.95914         0.001129      0.001897     -0.025814
Pd      9.65530     11.94673     10.56865        -0.008393     -0.011101      0.021263
Pd     11.77114     10.64570      8.08069         0.065010     -0.017275     -0.015879
Pd     11.74724      8.96159      5.89907        -0.000429      0.009671     -0.001131
Pd     10.51964     11.34024      5.77509         0.020261      0.026952     -0.006586
Ir     11.00413      9.69734     12.73020        -0.077373     -0.011199     -0.030840
Ir     13.17040      9.29767      9.96086         0.032858     -0.002372      0.040920
Ir     10.49455     12.14748     12.93490         0.038622      0.034789      0.019858
Ir      7.71700     11.02412      9.09787        -0.035351     -0.010457      0.030152
Ir      9.54426     12.09346      8.01242        -0.002574     -0.013308     -0.094690
Ir      8.04840      9.27133     10.78617         0.011932     -0.019986     -0.057653
