152
# total energy = -1023.26794094 eVH     10.35389      5.87395      7.64558         0.486834      0.081952      0.709178
H     10.62451     15.10445      7.64558        -0.107527     -0.059029      0.799829
H     10.62451      5.87395     13.33282         0.148086      0.129640     -0.634121
H     10.35389     15.10445     13.33282        -0.181889     -0.114252     -0.546181
H      7.64558     10.35389      5.87395         0.311986     -0.020562      0.195131
H      7.64558     10.62451     15.10445         0.663452     -0.226323     -0.131152
H     13.33282     10.62451      5.87395        -0.759898     -0.135289      0.203414
H     13.33282     10.35389     15.10445        -0.447520     -0.108516     -0.056976
H      5.87395      7.64558     10.35389         0.211472      1.093158     -0.262456
H     15.10445      7.64558     10.62451        -0.174172      0.466017     -0.115412
H      5.87395     13.33282     10.62451         0.161810     -0.430017     -0.066445
H     15.10445     13.33282     10.35389        -0.128279     -0.909213      0.016765
H      5.87395     10.35389      7.64558         0.136636      0.096156      0.462282
H     15.10445     10.62451      7.64558         0.099065     -0.011779      1.090534
H      5.87395     10.62451     13.33282         0.192180     -0.034474     -0.391106
H     15.10445     10.35389     13.33282        -0.118710     -0.050617     -0.553351
H     10.35389      7.64558      5.87395         0.120298      0.892402      0.191846
H     10.62451      7.64558     15.10445        -0.004981      0.502927     -0.164927
H     10.62451     13.33282      5.87395        -0.024619     -0.594281      0.228353
H     10.35389     13.33282     15.10445        -0.310466     -0.885704     -0.119283
H      7.64558      5.87395     10.35389         0.440525      0.096742     -0.050385
H      7.64558     15.10445     10.62451         0.864328     -0.275512      0.039158
H     13.33282      5.87395     10.62451        -0.454997      0.185066     -0.064844
H     13.33282     15.10445     10.35389        -0.655244     -0.096109      0.162969
H     12.45634     12.45634     19.01126         0.252555      0.265472     -0.228833
H     19.01126     19.01126     19.01126        -0.251223     -0.232111     -0.260370
H     19.01126     12.45634     12.45634        -0.237676      0.273464      0.238697
H     12.45634     19.01126     12.45634         0.224607     -0.263905      0.250460
C     10.35284      5.61067      6.59456        -0.192431     -0.368551     -0.023267
C     10.62556     15.36773      6.59456         0.064428      0.383288     -1.187539
C     10.62556      5.61067     14.38384        -0.056181     -0.233976      0.798876
C     10.35284     15.36773     14.38384         0.051249      0.888950      0.402268
C      6.59456     10.35284      5.61067        -0.372182     -0.035183     -0.174666
C      6.59456     10.62556     15.36773        -0.853312      0.212354      0.374325
C     14.38384     10.62556      5.61067         0.441951      0.294473     -0.509819
C     14.38384     10.35284     15.36773         0.786542     -0.117435      0.443491
C      5.61067      6.59456     10.35284        -0.311325     -0.649196      0.424690
C     15.36773      6.59456     10.62556         0.173349     -0.520737      0.075645
C      5.61067     14.38384     10.62556        -0.144858      0.397530     -0.022037
C     15.36773     14.38384     10.35284         0.392639     -0.047659     -0.109332
C      5.61067     10.35284      6.59456        -0.256358     -0.015922     -0.780023
C     15.36773     10.62556      6.59456         0.604139     -0.275370     -1.343688
C      5.61067     10.62556     14.38384        -0.350668      0.002470      0.426896
C     15.36773     10.35284     14.38384         0.498376     -0.166957      1.139713
C     10.35284      6.59456      5.61067        -0.166183     -0.502703     -0.439533
C     10.62556      6.59456     15.36773         0.052222     -0.599843      0.262567
C     10.62556     14.38384      5.61067         0.113855      1.017068     -0.486051
C     10.35284     14.38384     15.36773         0.245861      0.584482      0.553918
C      6.59456      5.61067     10.35284        -0.100057     -0.808735      0.074160
C      6.59456     15.36773     10.62556        -1.516730      0.404906      0.103884
C     14.38384      5.61067     10.62556         0.651408     -0.270433     -0.013984
C     14.38384     15.36773     10.35284        -0.433250      0.680247     -0.313085
C     10.40319      3.19606      7.29314         0.008114      0.848283     -0.298028
C     10.35913      4.25547      6.23373        -0.052071     -0.460006      0.518486
C      0.08601      7.29314      7.29314        -0.007298     -0.270015     -0.491607
C      0.13007      6.23373      6.23373         0.028136      0.132870      0.203690
C      0.08601      3.19606      3.19606        -0.012124      0.689401      0.197653
C      0.13007      4.25547      4.25547        -0.091510     -0.183721     -0.203086
C     10.40319      7.29314      3.19606        -0.006983     -0.666641      0.556675
C     10.35913      6.23373      4.25547        -0.040613      0.285212     -0.613986
C      7.29314     10.40319      3.19606        -0.344260      0.028658      0.924807
C      6.23373     10.35913      4.25547         0.178824      0.031220     -0.122779
C      7.29314      0.08601      7.29314        -0.312966     -0.039140     -0.296548
C      6.23373      0.13007      6.23373         0.338911     -0.052268      0.336069
C      3.19606      0.08601      3.19606         0.543352     -0.034466      0.698367
C      4.25547      0.13007      4.25547        -0.091401     -0.034575     -0.379412
C      3.19606     10.40319      7.29314         0.730024      0.001805     -0.407814
C      4.25547     10.35913      6.23373        -0.159701      0.034110      0.089990
C      3.19606      7.29314     10.40319         0.658606     -1.286427     -0.009582
C      4.25547      6.23373     10.35913        -0.641885      0.912666      0.085313
C      7.29314      7.29314      0.08601        -0.655616     -0.184821     -0.019208
C      6.23373      6.23373      0.13007         0.211677      0.205797      0.014030
C      3.19606      3.19606      0.08601         0.265632      0.290710     -0.020825
C      4.25547      4.25547      0.13007        -0.072632     -0.036439     -0.000459
C      7.29314      3.19606     10.40319        -0.363316      0.990454      0.016547
C      6.23373      4.25547     10.35913         1.060097     -0.025887      0.016063
O     10.43466      3.58206      8.50569        -0.043771      0.045815      0.385334
O     10.54374     17.39634      8.50569        -0.037078     -0.166904      0.576872
O     10.54374      3.58206     12.47271         0.051314      0.050328     -0.298353
O     10.43466     17.39634     12.47271        -0.011101     -0.135240     -0.624443
O      8.50569     10.43466      3.58206         0.365911     -0.024842     -0.026113
O      8.50569     10.54374     17.39634         0.473664      0.046021     -0.146155
O     12.47271     10.54374      3.58206        -0.493632      0.013315      0.084864
O     12.47271     10.43466     17.39634        -0.813890      0.003390     -0.195977
O      3.58206      8.50569     10.43466         0.113777      1.048180      0.018022
O     17.39634      8.50569     10.54374        -0.036308      0.320228      0.074492
O      3.58206     12.47271     10.54374         0.072324     -0.459081      0.051738
O     17.39634     12.47271     10.43466        -0.176783     -0.886966      0.054295
O      3.58206     10.43466      8.50569        -0.067584     -0.069390      0.321380
O     17.39634     10.54374      8.50569        -0.130534      0.043462      0.460637
O      3.58206     10.54374     12.47271         0.085595     -0.022583     -0.628487
O     17.39634     10.43466     12.47271        -0.181068      0.053496     -0.772795
O     10.43466      8.50569      3.58206         0.029761      0.659560      0.156683
O     10.54374      8.50569     17.39634         0.061983      0.456849     -0.086338
O     10.54374     12.47271      3.58206        -0.016891     -0.762700      0.236615
O     10.43466     12.47271     17.39634         0.034832     -0.857091     -0.241673
O      8.50569      3.58206     10.43466         0.447431      0.025508     -0.037857
O      8.50569     17.39634     10.54374         0.677607     -0.263562     -0.058581
O     12.47271      3.58206     10.54374        -0.461983      0.153315      0.043419
O     12.47271     17.39634     10.43466        -0.540067     -0.017999     -0.007977
O     11.90042     11.90042     19.56718        -0.293527     -0.313575      0.256103
O     19.56718     19.56718     19.56718         0.283373      0.266726      0.311784
O     19.56718     11.90042     11.90042         0.262534     -0.320947     -0.239168
O     11.90042     19.56718     11.90042        -0.271268      0.280363     -0.264560
O      9.45224      1.03696      9.45224        -0.082238      0.043047     -0.068134
O      1.03696      9.45224      9.45224         0.017260     -0.165725     -0.097031
O      1.03696      1.03696      1.03696         0.001880      0.071041      0.183460
O      9.45224      9.45224      1.03696        -0.062312     -0.095212      0.111669
Zr     10.48920      2.52580     10.48920        -0.001174     -0.094141     -0.058402
Zr     10.48920     18.45260     10.48920         0.121255      0.339384     -0.008339
Zr     10.48920     10.48920      2.52580         0.015658     -0.050839     -0.411580
Zr     10.48920     10.48920     18.45260        -0.161937     -0.063628      0.380371
Zr      2.52580     10.48920     10.48920        -0.331794      0.245905     -0.121706
Zr     18.45260     10.48920     10.48920         0.274999     -0.012801     -0.283435
Pd      8.98119     10.13034     13.31922        -0.051647     -0.028694      0.010767
Pd     10.69446      9.70361     10.82532        -0.017160     -0.070490     -0.061828
Pd     13.73156      8.42671     12.57735        -0.031821      0.053414     -0.023720
Pd     11.00694     10.91209     14.97619        -0.034516     -0.017221      0.004499
Pd     12.90986     11.04820     12.97889         0.019122      0.029672      0.064333
Pd     15.08870     11.08981     11.31303        -0.003910     -0.033363      0.005202
Pd      6.60946      7.70839     12.32031        -0.003371      0.034293      0.016691
Pd      9.31732      7.30521      9.86152        -0.009283     -0.007658     -0.013010
Pd      9.23801      7.47906     12.62395         0.013945      0.009902     -0.030684
Pd     11.64796      7.17797     11.40785        -0.002848      0.021962     -0.014121
Pd     11.69546      7.99732      8.88160         0.022461     -0.048869     -0.049464
Pd      7.36598     11.78266     11.78437        -0.020776     -0.009979     -0.016985
Pd      9.18788     14.72676      9.43725        -0.003596     -0.041853     -0.000469
Pd      8.38920     12.55491     14.26560        -0.021111     -0.013681     -0.001747
Pd     14.09379     14.25417      8.31156         0.009135     -0.006891      0.005300
Pd     11.50680     13.64410      8.73153         0.013210     -0.010188      0.032734
Pd     14.15899     11.69438      8.88455        -0.004975      0.003075     -0.007218
Pd      8.71528     14.03726     12.07956        -0.011098      0.000145      0.015705
Pd     12.26939     13.52389     14.14456        -0.008095      0.032196      0.003205
Pd     11.34282     14.41297     11.44308         0.012268     -0.020785     -0.005529
Pd     14.07128     13.60063     12.26478         0.006181     -0.015672     -0.014001
Pd     12.42239     12.14767     10.72498        -0.014746     -0.069699      0.043442
Pd     12.75214     12.53880      6.67177        -0.004437      0.011366     -0.010263
Pd     13.93328      8.99979      7.97092         0.012494     -0.017516     -0.041131
Pd      6.94496      8.50175      8.76207        -0.002376     -0.015023     -0.018792
Pd      5.62573     10.10072     10.71086        -0.004307     -0.005153     -0.062716
Pd      9.39674      9.47424      8.09205        -0.010989     -0.023378     -0.085505
Pd      8.56994      7.03814      7.23349        -0.021823     -0.040258     -0.019649
Pd      9.76242     12.12338     10.38421        -0.045680     -0.033291      0.017579
Pd     11.63573     10.82089      8.46658        -0.026361     -0.001669     -0.048599
Pd     11.58761      9.09254      6.44853         0.023055     -0.016268     -0.040685
Pd     10.10206     11.33642      6.25975         0.027066     -0.024261     -0.097727
Ir     11.29224      9.02486     13.20388        -0.028830      0.036095     -0.083044
Ir     13.22287      9.60926     10.35988        -0.011491     -0.034573      0.007816
Ir     10.54831     12.23301     12.75418        -0.004950     -0.040444      0.054566
Ir      7.60384     11.00812      9.25674         0.060179      0.038733     -0.033989
Ir      8.92175     12.56384      8.07146         0.041734     -0.058377      0.045438
Ir      8.19865      9.31620     11.00683         0.013015     -0.013459      0.008429
