152
# total energy = -1059.99995123 eVH     10.35389      5.87395      7.64558        -0.258171     -0.000614      1.143679
H     10.62451     15.10445      7.64558         0.037467     -0.091870      0.922552
H     10.62451      5.87395     13.33282        -0.232560      0.090886     -0.787173
H     10.35389     15.10445     13.33282         0.095953     -0.295981     -0.898171
H      7.64558     10.35389      5.87395         0.928022     -0.109257      0.183145
H      7.64558     10.62451     15.10445         0.338401     -0.045204     -0.076993
H     13.33282     10.62451      5.87395        -0.871300      0.211328      0.202389
H     13.33282     10.35389     15.10445        -0.277347     -0.011195     -0.068603
H      5.87395      7.64558     10.35389         0.089114      0.411892     -0.018544
H     15.10445      7.64558     10.62451         0.015741      0.516869     -0.034520
H      5.87395     13.33282     10.62451        -0.017730     -0.965248      0.077705
H     15.10445     13.33282     10.35389        -0.077965     -0.319590      0.004362
H      5.87395     10.35389      7.64558         0.269122      0.118707      0.418720
H     15.10445     10.62451      7.64558        -0.126702     -0.174487      0.648529
H      5.87395     10.62451     13.33282        -0.091185      0.459303     -0.614379
H     15.10445     10.35389     13.33282         0.268871     -0.660367     -0.810450
H     10.35389      7.64558      5.87395        -0.046445      0.483149      0.331285
H     10.62451      7.64558     15.10445         0.217032      0.749011     -0.049504
H     10.62451     13.33282      5.87395         0.119154     -0.557589      0.204037
H     10.35389     13.33282     15.10445         0.047632     -0.286584     -0.132782
H      7.64558      5.87395     10.35389         0.339753      0.092688      0.011206
H      7.64558     15.10445     10.62451         0.367263     -0.111804      0.155883
H     13.33282      5.87395     10.62451        -0.319294      0.126671     -0.038370
H     13.33282     15.10445     10.35389        -0.652298     -0.135098      0.143916
H     12.45634     12.45634     19.01126         0.254599      0.270631     -0.229996
H     19.01126     19.01126     19.01126        -0.245794     -0.268662     -0.245207
H     19.01126     12.45634     12.45634        -0.251946      0.269133      0.235107
H     12.45634     19.01126     12.45634         0.290278     -0.235904      0.233986
C     10.35284      5.61067      6.59456         0.397558     -0.432536     -1.465761
C     10.62556     15.36773      6.59456        -0.163404      0.563964     -0.625529
C     10.62556      5.61067     14.38384         0.387519     -0.350547      0.847273
C     10.35284     15.36773     14.38384        -0.234839      0.223016      1.108797
C      6.59456     10.35284      5.61067        -1.374343      0.018425     -0.249703
C      6.59456     10.62556     15.36773        -0.658577      0.059877      0.384115
C     14.38384     10.62556      5.61067         1.300988     -0.172636     -0.616771
C     14.38384     10.35284     15.36773         0.381019     -0.121609      0.357491
C      5.61067      6.59456     10.35284        -0.298364     -0.612032     -0.009016
C     15.36773      6.59456     10.62556         0.421215     -1.013441      0.027983
C      5.61067     14.38384     10.62556        -0.118362      1.161365     -0.181990
C     15.36773     14.38384     10.35284         0.455499      0.645758     -0.026217
C      5.61067     10.35284      6.59456        -0.362060     -0.102159     -0.709124
C     15.36773     10.62556      6.59456         0.420711      0.120626     -0.755242
C      5.61067     10.62556     14.38384        -0.384662     -0.175728      1.224827
C     15.36773     10.35284     14.38384         0.284863      0.196235      1.523928
C     10.35284      6.59456      5.61067        -0.049949     -0.711810     -0.636404
C     10.62556      6.59456     15.36773        -0.091768     -0.825091      0.344314
C     10.62556     14.38384      5.61067        -0.452187      0.422850     -0.693475
C     10.35284     14.38384     15.36773        -0.152823      0.584004      0.409060
C      6.59456      5.61067     10.35284        -0.495499     -0.338288      0.046275
C      6.59456     15.36773     10.62556        -0.400772      0.472503      0.048671
C     14.38384      5.61067     10.62556         0.450633     -0.391013      0.006763
C     14.38384     15.36773     10.35284         1.122141      0.507144     -0.071456
C     10.40319      3.19606      7.29314         0.002292      0.628146     -0.338054
C     10.35913      4.25547      6.23373         0.000640     -0.446782      0.292509
C      0.08601      7.29314      7.29314        -0.013427     -0.354345     -0.493610
C      0.13007      6.23373      6.23373        -0.082026      0.820229      0.062293
C      0.08601      3.19606      3.19606        -0.001598      0.665840      0.270544
C      0.13007      4.25547      4.25547         0.021109     -0.270906     -0.515106
C     10.40319      7.29314      3.19606        -0.067602     -1.154490      0.546019
C     10.35913      6.23373      4.25547        -0.038575      0.375959     -0.192340
C      7.29314     10.40319      3.19606        -1.084053     -0.058005      0.183737
C      6.23373     10.35913      4.25547         0.363454      0.081427     -0.536092
C      7.29314      0.08601      7.29314        -0.407303      0.034653     -0.570269
C      6.23373      0.13007      6.23373         0.178805      0.133529      0.132164
C      3.19606      0.08601      3.19606         0.694973      0.024348      0.165638
C      4.25547      0.13007      4.25547        -0.168572     -0.052295     -0.367006
C      3.19606     10.40319      7.29314         0.384691     -0.024095     -0.861880
C      4.25547     10.35913      6.23373        -0.165250     -0.085550      0.095857
C      3.19606      7.29314     10.40319         0.598111     -0.383420      0.000847
C      4.25547      6.23373     10.35913        -0.121665      0.179006      0.000224
C      7.29314      7.29314      0.08601        -0.400806     -0.330404     -0.015333
C      6.23373      6.23373      0.13007         0.203652      0.195055     -0.055579
C      3.19606      3.19606      0.08601         0.291628      0.480513     -0.023182
C      4.25547      4.25547      0.13007        -0.398367     -0.225503     -0.029126
C      7.29314      3.19606     10.40319        -0.283480      0.588776     -0.014449
C      6.23373      4.25547     10.35913         0.001761     -0.130842      0.022339
O     10.43466      3.58206      8.50569        -0.030984      0.107000      0.334007
O     10.54374     17.39634      8.50569         0.067637     -0.135399      0.590457
O     10.54374      3.58206     12.47271         0.026819      0.108599     -0.389848
O     10.43466     17.39634     12.47271         0.088531     -0.045894     -0.360518
O      8.50569     10.43466      3.58206         0.715670     -0.060347      0.014932
O      8.50569     10.54374     17.39634         0.445654      0.053384     -0.069323
O     12.47271     10.54374      3.58206        -0.651990      0.112495      0.203760
O     12.47271     10.43466     17.39634        -0.291057     -0.004655      0.010100
O      3.58206      8.50569     10.43466         0.046558      0.461944     -0.064734
O     17.39634      8.50569     10.54374        -0.062092      0.463928      0.054630
O      3.58206     12.47271     10.54374         0.112683     -0.584498      0.003406
O     17.39634     12.47271     10.43466        -0.166609     -0.736039     -0.062491
O      3.58206     10.43466      8.50569         0.218238     -0.063982      0.777541
O     17.39634     10.54374      8.50569        -0.120201      0.078392      0.604806
O      3.58206     10.54374     12.47271         0.001302     -0.001011     -0.272032
O     17.39634     10.43466     12.47271         0.043805     -0.013553     -0.209614
O     10.43466      8.50569      3.58206        -0.105270      0.577446     -0.113995
O     10.54374      8.50569     17.39634         0.063242      0.502525     -0.102581
O     10.54374     12.47271      3.58206         0.104518     -0.621839      0.134467
O     10.43466     12.47271     17.39634        -0.061903     -0.621688     -0.234475
O      8.50569      3.58206     10.43466         0.399714      0.029823     -0.031435
O      8.50569     17.39634     10.54374         0.627500     -0.151660      0.050782
O     12.47271      3.58206     10.54374        -0.509350      0.126572      0.037652
O     12.47271     17.39634     10.43466        -0.621556     -0.141275      0.034833
O     11.90042     11.90042     19.56718        -0.275105     -0.308639      0.237912
O     19.56718     19.56718     19.56718         0.301504      0.319358      0.299155
O     19.56718     11.90042     11.90042         0.285237     -0.324664     -0.230603
O     11.90042     19.56718     11.90042        -0.318317      0.230685     -0.202039
O      9.45224      1.03696      9.45224        -0.084764      0.081767     -0.067101
O      1.03696      9.45224      9.45224         0.097449     -0.116091     -0.044593
O      1.03696      1.03696      1.03696         0.081057      0.054859      0.100474
O      9.45224      9.45224      1.03696        -0.059460     -0.130364      0.130890
Zr     10.48920      2.52580     10.48920         0.033413     -0.086303      0.062869
Zr     10.48920     18.45260     10.48920        -0.170036      0.262951     -0.341921
Zr     10.48920     10.48920      2.52580         0.124316      0.355249     -0.356308
Zr     10.48920     10.48920     18.45260        -0.078429     -0.187698      0.170778
Zr      2.52580     10.48920     10.48920        -0.251424      0.123810      0.217379
Zr     18.45260     10.48920     10.48920         0.230768     -0.111053      0.010944
Pd      9.38277     14.20781      9.40341         0.012791      0.050121     -0.027495
Pd      8.63445     13.71138     12.98945        -0.007626     -0.012341     -0.005638
Pd     12.00936     14.41450      8.76220         0.018702      0.008979     -0.017982
Pd     12.78754     12.79224     10.60407        -0.017006      0.025894      0.020279
Pd     12.17758      7.09638     12.60297        -0.029824      0.021326      0.018940
Pd     11.25389     14.79031     11.54589        -0.043163      0.040395     -0.032291
Pd     10.12213     12.45323     11.16764        -0.037769      0.030179     -0.067342
Pd     13.47260     12.13485      7.96996         0.011677     -0.000576      0.011123
Pd     11.46911     11.54901      6.12201         0.010461      0.005243     -0.018343
Pd      7.83683      8.59261      7.56307         0.020827     -0.032167     -0.021719
Pd      8.74678     11.72539      6.90697        -0.009566     -0.000270     -0.025216
Pd     10.31469      9.45018      8.13405        -0.005982      0.023155      0.017297
Pd      8.50511     14.42285      6.88971         0.011616      0.013455     -0.035531
Pd     12.37560      9.02769      6.57335        -0.008711      0.008449      0.020961
Pd      9.73871      9.60303      5.55135         0.001569      0.001935      0.015325
Pd      6.88590      9.46453     12.19151        -0.019312      0.005667     -0.000958
Pd     12.21320      6.66940      7.84349        -0.005079      0.019485      0.027304
Pd      5.96727     10.49848      9.74475        -0.019170     -0.036652     -0.029146
Pd      7.56282      7.08781     13.16201         0.018377      0.046113      0.089696
Ir     11.84249      9.68673     13.06291        -0.014674      0.003607     -0.006894
Ir     13.59907      8.97834     11.42666        -0.021748      0.005038      0.027407
Ir      9.42549      8.80491     13.80272         0.004298      0.007699      0.068541
Ir     10.57935     10.91427     14.84269        -0.004693      0.003911      0.047860
Ir      7.32014     12.05319     11.37853        -0.016597     -0.023717      0.014882
Ir     14.70903     10.81490     10.05579        -0.002898      0.017112      0.029417
Ir     12.21001     10.44857      9.64766        -0.025300      0.074737      0.009151
Ir      8.77770     11.04636     13.04683        -0.017987      0.015251     -0.037878
Ir     10.16854      9.82692     11.25692        -0.030699      0.016504     -0.042558
Ir     13.81495     11.35130     12.37401        -0.047232      0.003118      0.026807
Ir     11.72777     12.29132     13.12327        -0.066413      0.005008     -0.000264
Ir      8.54935     11.05790      9.41095         0.005364     -0.001222     -0.015187
Ir     11.60395      7.95717     10.04722        -0.037884     -0.015034      0.019253
Ir      7.21892     12.96062      8.69285         0.013546      0.033178      0.006652
Ir      9.51110      6.99511      9.07250         0.006462      0.033434      0.045177
Ir      8.09190      8.73320     10.11996        -0.004737     -0.007987     -0.013316
Ir     10.76921     12.07618      8.55801         0.001278      0.001394      0.004165
Ir      9.60386      7.37966     11.62821        -0.007090      0.042707     -0.010512
Ir     13.70764      8.66370      8.78520         0.004535      0.012204     -0.000886
