152
# total energy = -1060.15297818 eVH     10.35389      5.87395      7.64558        -0.317161      0.101078      1.088417
H     10.62451     15.10445      7.64558         0.079168     -0.070399      0.898276
H     10.62451      5.87395     13.33282        -0.268156      0.072795     -0.781345
H     10.35389     15.10445     13.33282         0.093853     -0.303093     -0.820272
H      7.64558     10.35389      5.87395         0.892738     -0.199003      0.207904
H      7.64558     10.62451     15.10445         0.316254     -0.029157     -0.061049
H     13.33282     10.62451      5.87395        -0.884423      0.217400      0.219665
H     13.33282     10.35389     15.10445        -0.281837     -0.028807     -0.061717
H      5.87395      7.64558     10.35389         0.093585      0.419758     -0.013781
H     15.10445      7.64558     10.62451        -0.042152      0.441021     -0.028119
H      5.87395     13.33282     10.62451        -0.019650     -0.970069      0.077256
H     15.10445     13.33282     10.35389        -0.083285     -0.325247      0.002505
H      5.87395     10.35389      7.64558         0.319862      0.061883      0.370255
H     15.10445     10.62451      7.64558        -0.121058     -0.160069      0.665371
H      5.87395     10.62451     13.33282        -0.061259      0.450540     -0.597865
H     15.10445     10.35389     13.33282         0.224291     -0.636405     -0.871171
H     10.35389      7.64558      5.87395        -0.020204      0.500940      0.345223
H     10.62451      7.64558     15.10445         0.336497      0.792902     -0.003773
H     10.62451     13.33282      5.87395         0.151609     -0.567850      0.201729
H     10.35389     13.33282     15.10445         0.036606     -0.290693     -0.167631
H      7.64558      5.87395     10.35389         0.371295      0.114712      0.063259
H      7.64558     15.10445     10.62451         0.386531     -0.126866      0.180490
H     13.33282      5.87395     10.62451        -0.306377      0.137152     -0.013697
H     13.33282     15.10445     10.35389        -0.656891     -0.106811      0.137468
H     12.45634     12.45634     19.01126         0.259119      0.272381     -0.226516
H     19.01126     19.01126     19.01126        -0.247850     -0.267446     -0.244407
H     19.01126     12.45634     12.45634        -0.249175      0.271598      0.236985
H     12.45634     19.01126     12.45634         0.289814     -0.234907      0.235393
C     10.35284      5.61067      6.59456         0.404463     -0.421874     -1.361198
C     10.62556     15.36773      6.59456        -0.169364      0.610157     -0.662332
C     10.62556      5.61067     14.38384         0.365630     -0.275738      0.773586
C     10.35284     15.36773     14.38384        -0.204108      0.214932      1.019876
C      6.59456     10.35284      5.61067        -1.389932      0.031101     -0.227124
C      6.59456     10.62556     15.36773        -0.669381      0.064723      0.356675
C     14.38384     10.62556      5.61067         1.307357     -0.185701     -0.628258
C     14.38384     10.35284     15.36773         0.317620     -0.130748      0.348605
C      5.61067      6.59456     10.35284        -0.274838     -0.672091     -0.029733
C     15.36773      6.59456     10.62556         0.408334     -0.859865      0.027262
C      5.61067     14.38384     10.62556        -0.146142      1.196605     -0.219028
C     15.36773     14.38384     10.35284         0.503902      0.702623     -0.036964
C      5.61067     10.35284      6.59456        -0.374402     -0.102324     -0.786070
C     15.36773     10.62556      6.59456         0.401193      0.108169     -0.680464
C      5.61067     10.62556     14.38384        -0.412755     -0.162666      1.217864
C     15.36773     10.35284     14.38384         0.235703      0.225362      1.413433
C     10.35284      6.59456      5.61067        -0.069727     -0.745219     -0.548028
C     10.62556      6.59456     15.36773        -0.143518     -0.984825      0.375231
C     10.62556     14.38384      5.61067        -0.493974      0.379458     -0.738872
C     10.35284     14.38384     15.36773        -0.174975      0.751949      0.498795
C      6.59456      5.61067     10.35284        -0.562217     -0.334878      0.004124
C      6.59456     15.36773     10.62556        -0.361994      0.448156      0.064448
C     14.38384      5.61067     10.62556         0.432691     -0.311424      0.008374
C     14.38384     15.36773     10.35284         1.130288      0.488849     -0.077926
C     10.40319      3.19606      7.29314        -0.006835      0.775833     -0.334509
C     10.35913      4.25547      6.23373         0.022187     -0.381102      0.291371
C      0.08601      7.29314      7.29314        -0.018416     -0.378718     -0.505747
C      0.13007      6.23373      6.23373        -0.046883      0.883179      0.094444
C      0.08601      3.19606      3.19606        -0.007354      0.693660      0.260186
C      0.13007      4.25547      4.25547         0.045505     -0.265626     -0.547049
C     10.40319      7.29314      3.19606        -0.063939     -1.112291      0.620117
C     10.35913      6.23373      4.25547        -0.046971      0.346700     -0.200932
C      7.29314     10.40319      3.19606        -1.090994     -0.054358      0.201184
C      6.23373     10.35913      4.25547         0.377984      0.101582     -0.518784
C      7.29314      0.08601      7.29314        -0.476882      0.029358     -0.446483
C      6.23373      0.13007      6.23373         0.181108      0.122895      0.121730
C      3.19606      0.08601      3.19606         0.697261      0.023147      0.173415
C      4.25547      0.13007      4.25547        -0.172929     -0.050481     -0.363309
C      3.19606     10.40319      7.29314         0.365221     -0.026010     -0.950918
C      4.25547     10.35913      6.23373        -0.128065     -0.054861      0.113927
C      3.19606      7.29314     10.40319         0.616763     -0.400026      0.002455
C      4.25547      6.23373     10.35913        -0.115934      0.176538      0.011272
C      7.29314      7.29314      0.08601        -0.429240     -0.296443     -0.015288
C      6.23373      6.23373      0.13007         0.152050      0.155237     -0.064069
C      3.19606      3.19606      0.08601         0.294251      0.492863     -0.024938
C      4.25547      4.25547      0.13007        -0.405669     -0.240288     -0.031171
C      7.29314      3.19606     10.40319        -0.285307      0.596003     -0.010049
C      6.23373      4.25547     10.35913         0.016012     -0.093517      0.014571
O     10.43466      3.58206      8.50569        -0.026462      0.075740      0.304591
O     10.54374     17.39634      8.50569         0.064322     -0.123839      0.592979
O     10.54374      3.58206     12.47271         0.029187      0.102222     -0.398641
O     10.43466     17.39634     12.47271         0.094343     -0.062009     -0.432698
O      8.50569     10.43466      3.58206         0.733308     -0.072038      0.015589
O      8.50569     10.54374     17.39634         0.531742      0.061499     -0.104300
O     12.47271     10.54374      3.58206        -0.653839      0.113033      0.210307
O     12.47271     10.43466     17.39634        -0.278863      0.004567      0.035701
O      3.58206      8.50569     10.43466         0.033517      0.444696     -0.062919
O     17.39634      8.50569     10.54374        -0.054936      0.448040      0.056272
O      3.58206     12.47271     10.54374         0.103924     -0.587481      0.003955
O     17.39634     12.47271     10.43466        -0.182688     -0.743695     -0.049657
O      3.58206     10.43466      8.50569         0.208999     -0.060829      0.807835
O     17.39634     10.54374      8.50569        -0.074612      0.072575      0.495196
O      3.58206     10.54374     12.47271        -0.002646     -0.005614     -0.263902
O     17.39634     10.43466     12.47271         0.033517     -0.009897     -0.234800
O     10.43466      8.50569      3.58206        -0.108542      0.533060     -0.100051
O     10.54374      8.50569     17.39634         0.058536      0.510554     -0.086403
O     10.54374     12.47271      3.58206         0.102700     -0.636720      0.129423
O     10.43466     12.47271     17.39634        -0.066565     -0.687570     -0.274041
O      8.50569      3.58206     10.43466         0.396705      0.022194     -0.046241
O      8.50569     17.39634     10.54374         0.640983     -0.153298      0.045879
O     12.47271      3.58206     10.54374        -0.517984      0.121903      0.028440
O     12.47271     17.39634     10.43466        -0.624719     -0.123925      0.040760
O     11.90042     11.90042     19.56718        -0.279090     -0.304109      0.222712
O     19.56718     19.56718     19.56718         0.309643      0.322885      0.297553
O     19.56718     11.90042     11.90042         0.283590     -0.325029     -0.236060
O     11.90042     19.56718     11.90042        -0.314450      0.229283     -0.201748
O      9.45224      1.03696      9.45224        -0.073510      0.086705     -0.081240
O      1.03696      9.45224      9.45224         0.100079     -0.107500     -0.062581
O      1.03696      1.03696      1.03696         0.079562      0.054170      0.097348
O      9.45224      9.45224      1.03696        -0.058706     -0.125815      0.135733
Zr     10.48920      2.52580     10.48920         0.044175     -0.093596      0.123043
Zr     10.48920     18.45260     10.48920        -0.184153      0.246640     -0.359901
Zr     10.48920     10.48920      2.52580         0.111655      0.358391     -0.343278
Zr     10.48920     10.48920     18.45260        -0.078216     -0.260123      0.233344
Zr      2.52580     10.48920     10.48920        -0.240481      0.132622      0.244592
Zr     18.45260     10.48920     10.48920         0.196555     -0.138881     -0.017466
Pd      9.36137     14.30109      9.31206         0.004887      0.014105     -0.021931
Pd      8.58940     13.63526     13.05227         0.004999      0.000646      0.021605
Pd     12.02409     14.40647      8.74380         0.006827     -0.000820      0.002566
Pd     12.75572     12.87610     10.67638        -0.038445     -0.008778      0.034025
Pd     12.12021      7.19415     12.67639         0.000598     -0.006173      0.002882
Pd     11.15968     14.90386     11.45254        -0.014473      0.015870     -0.015611
Pd     10.03349     12.55552     11.08968        -0.034759      0.033478     -0.027121
Pd     13.48312     12.15690      7.98295         0.005267      0.005741      0.007985
Pd     11.48025     11.54413      6.11051         0.007702      0.012067     -0.002588
Pd      7.94271      8.37576      7.52315         0.002103     -0.025559     -0.000923
Pd      8.72190     11.75774      6.84663        -0.002547      0.004619      0.008971
Pd     10.31984      9.45499      8.15203        -0.025890     -0.005374      0.012386
Pd      8.49680     14.46460      6.78967        -0.007193      0.002702     -0.012931
Pd     12.39548      9.02100      6.57419        -0.007773      0.020285      0.023490
Pd      9.71946      9.61027      5.57388         0.005090      0.002560     -0.000357
Pd      6.81192      9.45014     12.13661         0.012611      0.000942      0.002981
Pd     12.17897      6.74226      7.95280         0.008447     -0.000116      0.002445
Pd      5.91545     10.48347      9.68901         0.002443     -0.001939      0.006135
Pd      7.55008      7.23905     13.40510         0.001669     -0.006764     -0.012746
Ir     11.73672      9.77867     13.06666        -0.011358     -0.014117      0.007053
Ir     13.55307      9.05700     11.47692        -0.008474      0.025989      0.005679
Ir      9.42652      8.86219     14.00952        -0.019242     -0.004413      0.013518
Ir     10.50214     11.02722     14.87893        -0.012183     -0.041926      0.060443
Ir      7.26773     12.01571     11.34091        -0.009646      0.002476     -0.005873
Ir     14.65470     10.90987     10.14918        -0.043412      0.006352      0.048614
Ir     12.16756     10.56727      9.67346         0.020197     -0.000146     -0.008676
Ir      8.74010     10.99419     12.98784         0.034276      0.019731      0.017277
Ir     10.10825      9.91949     11.17398         0.005317      0.009469     -0.029178
Ir     13.73994     11.42084     12.48553        -0.021134     -0.011001      0.012646
Ir     11.59534     12.35794     13.08450        -0.064694     -0.003084      0.015514
Ir      8.49957     11.09960      9.33674        -0.012805      0.021585     -0.006249
Ir     11.59390      8.02776     10.14314         0.008187      0.000376      0.007159
Ir      7.21866     13.03281      8.65695         0.022089     -0.001935      0.009096
Ir      9.54922      6.96114      9.23994        -0.002043      0.010341      0.008301
Ir      8.05509      8.76551     10.05746         0.006575     -0.010965     -0.013880
Ir     10.72414     12.12325      8.50605         0.001281     -0.000570     -0.001729
Ir      9.51555      7.57493     11.75571        -0.000252     -0.009200     -0.005399
Ir     13.67206      8.79074      8.84305         0.014658      0.009389      0.026529
