152
# total energy = -1060.00601901 eVH     10.35389      5.87395      7.64558        -0.259787      0.001129      1.143147
H     10.62451     15.10445      7.64558         0.040506     -0.091446      0.923261
H     10.62451      5.87395     13.33282        -0.234588      0.090078     -0.787292
H     10.35389     15.10445     13.33282         0.096630     -0.296223     -0.897207
H      7.64558     10.35389      5.87395         0.929103     -0.110940      0.183188
H      7.64558     10.62451     15.10445         0.337551     -0.044511     -0.077066
H     13.33282     10.62451      5.87395        -0.871187      0.211353      0.202643
H     13.33282     10.35389     15.10445        -0.277384     -0.011194     -0.068611
H      5.87395      7.64558     10.35389         0.088841      0.412753     -0.017428
H     15.10445      7.64558     10.62451         0.014170      0.515944     -0.034195
H      5.87395     13.33282     10.62451        -0.017669     -0.964562      0.077341
H     15.10445     13.33282     10.35389        -0.078425     -0.319746      0.004339
H      5.87395     10.35389      7.64558         0.269959      0.118614      0.418218
H     15.10445     10.62451      7.64558        -0.126386     -0.174474      0.649393
H      5.87395     10.62451     13.33282        -0.091056      0.459879     -0.615447
H     15.10445     10.35389     13.33282         0.267226     -0.657394     -0.811468
H     10.35389      7.64558      5.87395        -0.046222      0.482889      0.331282
H     10.62451      7.64558     15.10445         0.218154      0.749626     -0.048311
H     10.62451     13.33282      5.87395         0.120052     -0.559305      0.204422
H     10.35389     13.33282     15.10445         0.046485     -0.286441     -0.133497
H      7.64558      5.87395     10.35389         0.339504      0.092973      0.012694
H      7.64558     15.10445     10.62451         0.368343     -0.112303      0.156403
H     13.33282      5.87395     10.62451        -0.318812      0.126959     -0.037861
H     13.33282     15.10445     10.35389        -0.652690     -0.134460      0.144133
H     12.45634     12.45634     19.01126         0.254664      0.270738     -0.229830
H     19.01126     19.01126     19.01126        -0.245885     -0.268551     -0.245268
H     19.01126     12.45634     12.45634        -0.251918      0.269219      0.235104
H     12.45634     19.01126     12.45634         0.290310     -0.235846      0.234032
C     10.35284      5.61067      6.59456         0.396887     -0.430991     -1.464190
C     10.62556     15.36773      6.59456        -0.162778      0.565927     -0.626680
C     10.62556      5.61067     14.38384         0.387346     -0.349405      0.846322
C     10.35284     15.36773     14.38384        -0.234661      0.223473      1.108772
C      6.59456     10.35284      5.61067        -1.374992      0.018880     -0.248347
C      6.59456     10.62556     15.36773        -0.656397      0.059882      0.383192
C     14.38384     10.62556      5.61067         1.302675     -0.172827     -0.618317
C     14.38384     10.35284     15.36773         0.379311     -0.121810      0.357903
C      5.61067      6.59456     10.35284        -0.297128     -0.615481     -0.010211
C     15.36773      6.59456     10.62556         0.420292     -1.009045      0.028264
C      5.61067     14.38384     10.62556        -0.119231      1.160819     -0.182193
C     15.36773     14.38384     10.35284         0.456189      0.646243     -0.026130
C      5.61067     10.35284      6.59456        -0.362831     -0.101793     -0.709861
C     15.36773     10.62556      6.59456         0.420235      0.120453     -0.753258
C      5.61067     10.62556     14.38384        -0.384091     -0.175585      1.225642
C     15.36773     10.35284     14.38384         0.284218      0.195160      1.519394
C     10.35284      6.59456      5.61067        -0.050327     -0.712105     -0.633555
C     10.62556      6.59456     15.36773        -0.091913     -0.826935      0.344445
C     10.62556     14.38384      5.61067        -0.454291      0.421644     -0.694634
C     10.35284     14.38384     15.36773        -0.152739      0.585645      0.409962
C      6.59456      5.61067     10.35284        -0.497201     -0.338273      0.044158
C      6.59456     15.36773     10.62556        -0.399247      0.470849      0.049187
C     14.38384      5.61067     10.62556         0.449853     -0.389833      0.006058
C     14.38384     15.36773     10.35284         1.122041      0.505917     -0.071512
C     10.40319      3.19606      7.29314         0.002008      0.632737     -0.338016
C     10.35913      4.25547      6.23373         0.001485     -0.445420      0.292356
C      0.08601      7.29314      7.29314        -0.013419     -0.354987     -0.494727
C      0.13007      6.23373      6.23373        -0.081175      0.822659      0.062129
C      0.08601      3.19606      3.19606        -0.001647      0.667738      0.270258
C      0.13007      4.25547      4.25547         0.021678     -0.270587     -0.517991
C     10.40319      7.29314      3.19606        -0.067576     -1.154837      0.549019
C     10.35913      6.23373      4.25547        -0.038598      0.375217     -0.193360
C      7.29314     10.40319      3.19606        -1.084397     -0.058005      0.184322
C      6.23373     10.35913      4.25547         0.363640      0.081702     -0.536620
C      7.29314      0.08601      7.29314        -0.409041      0.034440     -0.566990
C      6.23373      0.13007      6.23373         0.178654      0.133104      0.131629
C      3.19606      0.08601      3.19606         0.696102      0.024359      0.165284
C      4.25547      0.13007      4.25547        -0.169130     -0.052439     -0.366741
C      3.19606     10.40319      7.29314         0.384981     -0.024203     -0.864049
C      4.25547     10.35913      6.23373        -0.164340     -0.085003      0.095811
C      3.19606      7.29314     10.40319         0.598536     -0.384172      0.001022
C      4.25547      6.23373     10.35913        -0.120722      0.179809      0.000199
C      7.29314      7.29314      0.08601        -0.401906     -0.329353     -0.015381
C      6.23373      6.23373      0.13007         0.202194      0.195140     -0.056372
C      3.19606      3.19606      0.08601         0.291494      0.480557     -0.023363
C      4.25547      4.25547      0.13007        -0.398997     -0.225738     -0.029367
C      7.29314      3.19606     10.40319        -0.282929      0.588883     -0.014157
C      6.23373      4.25547     10.35913         0.002167     -0.128888      0.022183
O     10.43466      3.58206      8.50569        -0.030752      0.105786      0.332628
O     10.54374     17.39634      8.50569         0.067083     -0.134985      0.590891
O     10.54374      3.58206     12.47271         0.026807      0.108426     -0.389910
O     10.43466     17.39634     12.47271         0.088642     -0.045954     -0.362532
O      8.50569     10.43466      3.58206         0.715253     -0.060174      0.014571
O      8.50569     10.54374     17.39634         0.448256      0.053922     -0.069965
O     12.47271     10.54374      3.58206        -0.652443      0.112907      0.203922
O     12.47271     10.43466     17.39634        -0.290104     -0.004637      0.011053
O      3.58206      8.50569     10.43466         0.046166      0.461796     -0.065109
O     17.39634      8.50569     10.54374        -0.061949      0.463267      0.054775
O      3.58206     12.47271     10.54374         0.112820     -0.584431      0.003247
O     17.39634     12.47271     10.43466        -0.167130     -0.736098     -0.062134
O      3.58206     10.43466      8.50569         0.217880     -0.063818      0.778141
O     17.39634     10.54374      8.50569        -0.118580      0.078139      0.601463
O      3.58206     10.54374     12.47271         0.000824     -0.001022     -0.271406
O     17.39634     10.43466     12.47271         0.043530     -0.013447     -0.210638
O     10.43466      8.50569      3.58206        -0.105084      0.576940     -0.114140
O     10.54374      8.50569     17.39634         0.063706      0.502555     -0.101691
O     10.54374     12.47271      3.58206         0.104595     -0.622300      0.134506
O     10.43466     12.47271     17.39634        -0.061719     -0.624396     -0.236411
O      8.50569      3.58206     10.43466         0.399331      0.029752     -0.031694
O      8.50569     17.39634     10.54374         0.627837     -0.151933      0.050591
O     12.47271      3.58206     10.54374        -0.509355      0.126585      0.037531
O     12.47271     17.39634     10.43466        -0.621574     -0.140642      0.035286
O     11.90042     11.90042     19.56718        -0.274989     -0.308485      0.237594
O     19.56718     19.56718     19.56718         0.301595      0.319239      0.299278
O     19.56718     11.90042     11.90042         0.285238     -0.324583     -0.230627
O     11.90042     19.56718     11.90042        -0.318194      0.230596     -0.202018
O      9.45224      1.03696      9.45224        -0.084910      0.082382     -0.066857
O      1.03696      9.45224      9.45224         0.098049     -0.116433     -0.044510
O      1.03696      1.03696      1.03696         0.081239      0.055052      0.100356
O      9.45224      9.45224      1.03696        -0.059526     -0.130564      0.130984
Zr     10.48920      2.52580     10.48920         0.033263     -0.086831      0.063753
Zr     10.48920     18.45260     10.48920        -0.170099      0.263114     -0.342626
Zr     10.48920     10.48920      2.52580         0.123778      0.355168     -0.356024
Zr     10.48920     10.48920     18.45260        -0.079025     -0.189266      0.171242
Zr      2.52580     10.48920     10.48920        -0.251701      0.124143      0.218229
Zr     18.45260     10.48920     10.48920         0.230262     -0.111181      0.009646
Pd      9.38387     14.21185      9.39997         0.010584      0.045068     -0.028439
Pd      8.63381     13.71169     12.98774        -0.007789     -0.009001     -0.001890
Pd     12.01127     14.41434      8.76067         0.017925      0.009058     -0.018527
Pd     12.78613     12.79431     10.60588        -0.011719      0.026166      0.027386
Pd     12.17509      7.09753     12.60387        -0.029050      0.018311      0.015496
Pd     11.25040     14.79359     11.54246        -0.041835      0.039400     -0.031193
Pd     10.11926     12.45599     11.16287        -0.038000      0.034349     -0.063896
Pd     13.47348     12.13460      7.97091         0.012822      0.003081      0.007655
Pd     11.47036     11.54964      6.12077         0.010472      0.006006     -0.016608
Pd      7.83851      8.59079      7.56124         0.018115     -0.033030     -0.023132
Pd      8.74627     11.72550      6.90483        -0.011898      0.004085     -0.018130
Pd     10.31467      9.45146      8.13477        -0.001812      0.012542     -0.000981
Pd      8.50558     14.42363      6.88608         0.010740      0.013672     -0.035850
Pd     12.37572      9.02803      6.57370        -0.010895      0.008693      0.020578
Pd      9.73945      9.60379      5.55121         0.001640     -0.000379      0.014210
Pd      6.88531      9.46458     12.19177        -0.012940      0.006585     -0.002000
Pd     12.21262      6.67105      7.84544        -0.002513      0.016803      0.024571
Pd      5.96603     10.49546      9.74369        -0.013392     -0.030663     -0.025448
Pd      7.56473      7.09133     13.17001         0.016570      0.045184      0.083893
Ir     11.83926      9.68754     13.06261        -0.019188      0.007397     -0.009030
Ir     13.59717      8.97897     11.42815        -0.026876      0.015032      0.008351
Ir      9.42568      8.80770     13.80778         0.000503      0.011731      0.063428
Ir     10.57844     10.91370     14.84669        -0.004475     -0.001117      0.037442
Ir      7.31790     12.05155     11.37788        -0.012136     -0.025274     -0.003166
Ir     14.70784     10.81661     10.05870        -0.017980      0.006800      0.034349
Ir     12.20787     10.45306      9.64826         0.019629      0.005309      0.020277
Ir      8.77891     11.04799     13.04485        -0.017564      0.001988     -0.032493
Ir     10.16594      9.82857     11.25374        -0.019102      0.022696     -0.025214
Ir     13.81083     11.35204     12.37710        -0.052420      0.003473      0.025126
Ir     11.72103     12.29134     13.12255        -0.062451     -0.001563      0.001789
Ir      8.54926     11.05718      9.40873        -0.031246      0.049166     -0.019169
Ir     11.60159      7.95765     10.04848         0.012422      0.018031      0.017137
Ir      7.22078     12.96397      8.69282         0.028591      0.006713      0.017587
Ir      9.51118      6.99663      9.07409        -0.003695      0.017534      0.031418
Ir      8.08998      8.73445     10.11824        -0.018078     -0.021648     -0.001585
Ir     10.76891     12.07682      8.55630        -0.013484      0.025306     -0.011587
Ir      9.60100      7.38381     11.62939        -0.013868      0.038921      0.009721
Ir     13.70720      8.66570      8.78590        -0.024401      0.036705      0.028922
