35
# total energy = -230.85134785 eVC      4.82828      9.03532      7.49840         0.018645     -0.014488      0.000000
C      7.18402      2.97698      7.49840        -0.018645      0.014488     -0.000000
C      2.97698      4.82828      7.49840         0.014488      0.018645      0.000000
C      9.03532      7.18402      7.49840        -0.014488     -0.018645     -0.000000
C      7.18402      9.03532      7.49840        -0.018645     -0.014488     -0.000000
C      4.82828      2.97698      7.49840         0.018645      0.014488      0.000000
C      9.03532      4.82828      7.49840        -0.014488      0.018645      0.000000
C      2.97698      7.18402      7.49840         0.014488     -0.018645     -0.000000
C      8.46549      8.46549      7.49840        -0.007007     -0.007007      0.000000
C      3.54681      3.54681      7.49840         0.007007      0.007007     -0.000000
C      3.54681      8.46549      7.49840         0.007007     -0.007007      0.000000
C      8.46549      3.54681      7.49840        -0.007007      0.007007     -0.000000
C     11.28724      0.72506      7.49840         0.001884     -0.001884     -0.000000
C      0.72506     11.28724      7.49840        -0.001884      0.001884      0.000000
C     11.28724     11.28724      7.49840         0.001884      0.001884     -0.000000
C      0.72506      0.72506      7.49840        -0.001884     -0.001884      0.000000
N      6.00615      8.35204      7.49840        -0.000000      0.007936      0.000000
N      6.00615      3.66026      7.49840        -0.000000     -0.007936     -0.000000
N      3.66026      6.00615      7.49840        -0.007936      0.000000      0.000000
N      8.35204      6.00615      7.49840         0.007936      0.000000     -0.000000
O      4.70874     10.37463      7.49840         0.019589     -0.002352     -0.000000
O      7.30356      1.63767      7.49840        -0.019589      0.002352      0.000000
O      1.63767      4.70874      7.49840         0.002352      0.019589      0.000000
O     10.37463      7.30356      7.49840        -0.002352     -0.019589     -0.000000
O      7.30356     10.37463      7.49840        -0.019589     -0.002352      0.000000
O      4.70874      1.63767      7.49840         0.019589      0.002352     -0.000000
O     10.37463      4.70874      7.49840        -0.002352      0.019589      0.000000
O      1.63767      7.30356      7.49840         0.002352     -0.019589     -0.000000
Au      9.90809      2.10421      7.49840        -0.006466      0.006466     -0.000000
Au      2.10421      9.90809      7.49840         0.006466     -0.006466      0.000000
Au      9.90809      9.90809      7.49840        -0.006466     -0.006466      0.000000
Au      2.10421      2.10421      7.49840         0.006466      0.006466      0.000000
Au      6.00615      6.00615      7.49840        -0.000000      0.000000      0.000000
Au      6.00615     -0.00000      7.49840        -0.000000      0.000000      0.000000
Au      0.00000      6.00615      7.49840        -0.000000      0.000000      0.000000
