152
# total energy = -1006.00299693 eVH     10.35389      5.87395      7.64558         0.259104      0.034841      0.637744
H     10.62451     15.10445      7.64558        -0.107356     -0.141316      0.512524
H     10.62451      5.87395     13.33282         0.484322      0.121524     -0.583538
H     10.35389     15.10445     13.33282         0.078470     -0.183386     -0.556139
H      7.64558     10.35389      5.87395         0.372395      0.093127      0.162232
H      7.64558     10.62451     15.10445         0.696341      0.471626     -0.039772
H     13.33282     10.62451      5.87395        -0.532687      0.421495      0.075165
H     13.33282     10.35389     15.10445        -0.803539     -0.093906      0.009003
H      5.87395      7.64558     10.35389         0.239865      0.686532     -0.401887
H     15.10445      7.64558     10.62451        -0.095262      0.479827      0.283113
H      5.87395     13.33282     10.62451         0.159644     -0.696019     -0.156237
H     15.10445     13.33282     10.35389        -0.010974     -1.022832     -0.326730
H      5.87395     10.35389      7.64558         0.251982      0.322320      0.759497
H     15.10445     10.62451      7.64558        -0.107715      0.403758      0.759008
H      5.87395     10.62451     13.33282         0.134220      0.327789     -0.690559
H     15.10445     10.35389     13.33282        -0.055631     -0.071109     -0.687344
H     10.35389      7.64558      5.87395         0.395099      1.054296     -0.008927
H     10.62451      7.64558     15.10445         0.536043      0.536975     -0.120745
H     10.62451     13.33282      5.87395        -0.398592     -0.847042      0.186454
H     10.35389     13.33282     15.10445        -0.045150     -0.433606     -0.216699
H      7.64558      5.87395     10.35389         0.848624      0.096670     -0.289621
H      7.64558     15.10445     10.62451         0.837765     -0.196275      0.012951
H     13.33282      5.87395     10.62451        -0.805863      0.197295      0.586731
H     13.33282     15.10445     10.35389        -0.443962     -0.111897     -0.130113
H     12.45634     12.45634     19.01126         0.235291      0.270070     -0.240045
H     19.01126     19.01126     19.01126        -0.262482     -0.240650     -0.261110
H     19.01126     12.45634     12.45634        -0.266926      0.268784      0.218310
H     12.45634     19.01126     12.45634         0.231931     -0.255377      0.278897
C     10.35284      5.61067      6.59456        -0.434158     -0.742200      0.206526
C     10.62556     15.36773      6.59456         0.061241      0.368470     -0.295270
C     10.62556      5.61067     14.38384        -0.334138     -0.359724     -0.306138
C     10.35284     15.36773     14.38384        -0.009371      0.330774      0.544038
C      6.59456     10.35284      5.61067        -0.203326     -0.001991     -0.400703
C      6.59456     10.62556     15.36773        -0.264750     -0.220634      0.809497
C     14.38384     10.62556      5.61067        -0.273793     -0.401345     -0.516520
C     14.38384     10.35284     15.36773         0.977163     -0.053816      0.256352
C      5.61067      6.59456     10.35284        -0.540216      0.005218      0.183409
C     15.36773      6.59456     10.62556         0.524319      0.025821     -0.251264
C      5.61067     14.38384     10.62556        -0.341672      0.971848      0.076457
C     15.36773     14.38384     10.35284         0.318954      1.033192      0.054558
C      5.61067     10.35284      6.59456        -0.178663     -0.326544     -0.626402
C     15.36773     10.62556      6.59456         0.447857     -0.290548      0.119059
C      5.61067     10.62556     14.38384        -0.729471     -0.355294     -0.058389
C     15.36773     10.35284     14.38384         0.387063     -0.060703      1.007385
C     10.35284      6.59456      5.61067        -0.204267     -0.197068     -0.657684
C     10.62556      6.59456     15.36773        -0.268025      0.122529      0.446966
C     10.62556     14.38384      5.61067         0.206637      1.066588     -0.347596
C     10.35284     14.38384     15.36773         0.027833      0.536394      0.433802
C      6.59456      5.61067     10.35284        -0.178485     -0.632038      0.232603
C      6.59456     15.36773     10.62556        -1.025276      0.301442      0.079616
C     14.38384      5.61067     10.62556         0.493489     -0.543416     -0.364978
C     14.38384     15.36773     10.35284         0.214895      0.453956     -0.102546
C     10.40319      3.19606      7.29314         0.006871      0.695953     -0.488946
C     10.35913      4.25547      6.23373         0.085268     -0.730817     -0.015525
C      0.08601      7.29314      7.29314        -0.043959     -0.410537     -0.308789
C      0.13007      6.23373      6.23373        -0.022566      0.082009      0.567593
C      0.08601      3.19606      3.19606        -0.018170      1.247968      0.279920
C      0.13007      4.25547      4.25547         0.048770     -0.776438     -0.152188
C     10.40319      7.29314      3.19606         0.009107     -0.346508      0.357885
C     10.35913      6.23373      4.25547         0.027062      0.015002     -0.903805
C      7.29314     10.40319      3.19606        -0.364211      0.019177      0.565940
C      6.23373     10.35913      4.25547         0.207837      0.048449     -0.130761
C      7.29314      0.08601      7.29314        -0.525547     -0.064185     -0.372083
C      6.23373      0.13007      6.23373         0.680491     -0.046884      0.492329
C      3.19606      0.08601      3.19606         0.666906     -0.037458      0.565056
C      4.25547      0.13007      4.25547        -0.572944     -0.080488     -0.554960
C      3.19606     10.40319      7.29314         0.484302     -0.021473     -0.781137
C      4.25547     10.35913      6.23373        -0.508756      0.028062      0.202486
C      3.19606      7.29314     10.40319         0.283281     -1.251529      0.037727
C      4.25547      6.23373     10.35913        -0.698251      0.099404      0.152723
C      7.29314      7.29314      0.08601        -0.406763     -0.370924     -0.028236
C      6.23373      6.23373      0.13007         0.468453      0.213641     -0.021417
C      3.19606      3.19606      0.08601         0.502661      0.371870     -0.039157
C      4.25547      4.25547      0.13007        -0.149081     -0.651433     -0.034532
C      7.29314      3.19606     10.40319        -0.321740      0.420442      0.074820
C      6.23373      4.25547     10.35913         0.254636     -0.696147      0.135870
O     10.43466      3.58206      8.50569        -0.014247      0.101712      0.509165
O     10.54374     17.39634      8.50569         0.036506     -0.174625      0.481990
O     10.54374      3.58206     12.47271         0.057775     -0.082649     -0.188461
O     10.43466     17.39634     12.47271        -0.038304     -0.182861     -0.568152
O      8.50569     10.43466      3.58206         0.339926      0.004936      0.036960
O      8.50569     10.54374     17.39634         0.632784      0.033209     -0.145533
O     12.47271     10.54374      3.58206        -0.674048      0.082505      0.091450
O     12.47271     10.43466     17.39634        -0.439889      0.027292     -0.111784
O      3.58206      8.50569     10.43466         0.182098      1.030027     -0.049203
O     17.39634      8.50569     10.54374        -0.162740      0.539130      0.076344
O      3.58206     12.47271     10.54374         0.083177     -0.361752      0.048827
O     17.39634     12.47271     10.43466        -0.157774     -0.545752     -0.022740
O      3.58206     10.43466      8.50569         0.075675     -0.061466      0.594287
O     17.39634     10.54374      8.50569        -0.110831      0.065772      0.521452
O      3.58206     10.54374     12.47271         0.057770      0.052259     -0.535154
O     17.39634     10.43466     12.47271        -0.216748     -0.040086     -0.591166
O     10.43466      8.50569      3.58206        -0.038937      0.474350      0.134102
O     10.54374      8.50569     17.39634         0.047947      0.529702     -0.161213
O     10.54374     12.47271      3.58206        -0.004136     -1.003132      0.207201
O     10.43466     12.47271     17.39634         0.041996     -0.735745     -0.174461
O      8.50569      3.58206     10.43466         0.506186      0.146794     -0.053749
O      8.50569     17.39634     10.54374         0.485821     -0.198066      0.013749
O     12.47271      3.58206     10.54374        -0.642791      0.236145      0.008227
O     12.47271     17.39634     10.43466        -0.212800      0.068343     -0.056551
O     11.90042     11.90042     19.56718        -0.239767     -0.288858      0.247737
O     19.56718     19.56718     19.56718         0.309994      0.295075      0.300041
O     19.56718     11.90042     11.90042         0.290044     -0.264970     -0.233246
O     11.90042     19.56718     11.90042        -0.242712      0.290863     -0.336888
O      9.45224      1.03696      9.45224        -0.020686      0.086241     -0.072656
O      1.03696      9.45224      9.45224         0.090776     -0.091080     -0.138889
O      1.03696      1.03696      1.03696         0.088813      0.190232      0.047022
O      9.45224      9.45224      1.03696        -0.112052     -0.100066      0.030709
Zr     10.48920      2.52580     10.48920        -0.132348     -0.291750     -0.035856
Zr     10.48920     18.45260     10.48920        -0.072436      0.214081      0.095625
Zr     10.48920     10.48920      2.52580         0.064150     -0.411511     -0.249975
Zr     10.48920     10.48920     18.45260        -0.269906     -0.089955      0.324479
Zr      2.52580     10.48920     10.48920        -0.375596      0.238369      0.304192
Zr     18.45260     10.48920     10.48920         0.241156     -0.000135     -0.222482
Pd     13.60440      8.99254      9.19679        -0.004128     -0.003510     -0.004453
Pd      5.62914      9.86572     10.12566         0.002208      0.000486     -0.006960
Pd      6.77064     11.84615     11.70846         0.000499     -0.000722     -0.000175
Pd     12.05863     12.99355      7.35789        -0.005995     -0.001941      0.000407
Pd     11.87413      7.73813      7.45179        -0.001640     -0.006562     -0.004311
Pd      8.31673      6.82602      6.52238         0.002344     -0.010577     -0.004331
Pd     10.56026     11.16781      5.65568        -0.016724     -0.001075      0.001985
Pd     14.39874      8.54693      6.72614        -0.002043     -0.000116     -0.002368
Pd      9.66317     11.72979      8.15142         0.002076     -0.004067      0.007380
Pd      6.72422      6.78630     12.34232        -0.000852     -0.001988      0.001868
Pd      6.62652      8.28705      7.86842         0.011315      0.010208     -0.017166
Pd      6.52277      8.48997     14.39297         0.001565     -0.001616      0.002753
Pd     11.48153      6.50780      9.95007        -0.002498     -0.003703      0.000881
Pd      9.45539      9.19848      7.17325        -0.000460     -0.003604      0.000032
Pd      8.97847     13.99215      9.36878         0.000253     -0.003067      0.006306
Pd      9.42984      7.36597     11.69533        -0.004298      0.001224     -0.003480
Pd     10.63297      8.95582      9.67225         0.002556     -0.003838     -0.006699
Pd      9.34102     11.57320     10.73956        -0.003481      0.003880      0.005447
Pd      8.85832      7.07207      9.10457        -0.002764     -0.000181     -0.005594
Pd      8.55416      6.58022     14.23243         0.001012      0.000546     -0.001746
Pd      7.61387      9.31802     12.03763        -0.003784     -0.000506      0.003649
Pd     11.93739     10.37369      7.70703        -0.002932     -0.004148     -0.014150
Pd      7.12834     12.01479      9.06671         0.003632     -0.004143      0.000614
Pd      8.15215      9.62542      9.48220         0.003346     -0.000125      0.010297
Pd     14.00886      6.50214      8.52544         0.000380     -0.003852     -0.000288
Pd     12.62923      8.40844     11.56358        -0.004668     -0.002370     -0.001497
Pd      8.75897     11.57030     13.41431        -0.000983     -0.000679      0.002510
Pd     13.86682     11.90757      8.96923        -0.001187     -0.001550     -0.003910
Pd     12.93081     10.70116     13.07636        -0.002617     -0.005311      0.000495
Pd     14.75972     10.42716     11.12160        -0.002726     -0.005208     -0.001909
Pd     12.04692     10.89636     10.53914        -0.009953     -0.000544     -0.001602
Pd     11.44858     13.34941      9.92604        -0.000676      0.003322      0.002971
Pd     13.59671     12.91080     11.62635         0.002180     -0.004290      0.000056
Pd     11.11273     12.62982     12.54514        -0.001143      0.000289      0.002137
Pd     10.94161     11.06757     14.81793         0.002369     -0.001243      0.000727
Pd     10.49631      9.71882     12.37766        -0.005310      0.000085     -0.001564
Pd      9.08388      9.14149     14.43703         0.000779     -0.001445      0.002802
Pd      8.79449     13.86600     12.07159        -0.001951     -0.002223      0.007732
