152
# total energy = -1023.27903500 eVH     10.35389      5.87395      7.64558         0.491726      0.084853      0.718611
H     10.62451     15.10445      7.64558        -0.060088     -0.096898      0.748212
H     10.62451      5.87395     13.33282         0.145242      0.139827     -0.625221
H     10.35389     15.10445     13.33282        -0.215239     -0.105101     -0.585109
H      7.64558     10.35389      5.87395         0.305593     -0.020607      0.186767
H      7.64558     10.62451     15.10445         0.737073     -0.264743     -0.095388
H     13.33282     10.62451      5.87395        -0.758793     -0.108142      0.199010
H     13.33282     10.35389     15.10445        -0.493686     -0.122581     -0.040567
H      5.87395      7.64558     10.35389         0.207696      1.003151     -0.209733
H     15.10445      7.64558     10.62451        -0.169854      0.445867     -0.099628
H      5.87395     13.33282     10.62451         0.168628     -0.433774     -0.061890
H     15.10445     13.33282     10.35389        -0.121386     -0.916315      0.041765
H      5.87395     10.35389      7.64558         0.132105      0.101835      0.449655
H     15.10445     10.62451      7.64558         0.099035      0.000025      1.104341
H      5.87395     10.62451     13.33282         0.168933     -0.029939     -0.379334
H     15.10445     10.35389     13.33282        -0.131644     -0.072026     -0.571001
H     10.35389      7.64558      5.87395         0.062828      0.861227      0.197842
H     10.62451      7.64558     15.10445         0.001977      0.424169     -0.172916
H     10.62451     13.33282      5.87395        -0.011994     -0.562067      0.213504
H     10.35389     13.33282     15.10445        -0.417286     -0.870161     -0.110037
H      7.64558      5.87395     10.35389         0.454065      0.099257     -0.013018
H      7.64558     15.10445     10.62451         0.817367     -0.282609      0.038812
H     13.33282      5.87395     10.62451        -0.447612      0.183114     -0.061768
H     13.33282     15.10445     10.35389        -0.641121     -0.091483      0.175631
H     12.45634     12.45634     19.01126         0.250886      0.269113     -0.228287
H     19.01126     19.01126     19.01126        -0.252086     -0.233859     -0.259244
H     19.01126     12.45634     12.45634        -0.236834      0.273870      0.236669
H     12.45634     19.01126     12.45634         0.225819     -0.262394      0.248446
C     10.35284      5.61067      6.59456        -0.206304     -0.391496     -0.011227
C     10.62556     15.36773      6.59456         0.058402      0.380927     -1.096689
C     10.62556      5.61067     14.38384        -0.056603     -0.210426      0.786632
C     10.35284     15.36773     14.38384         0.052155      0.841147      0.378056
C      6.59456     10.35284      5.61067        -0.370396     -0.037602     -0.191564
C      6.59456     10.62556     15.36773        -0.931687      0.270160      0.393872
C     14.38384     10.62556      5.61067         0.444313      0.290480     -0.532291
C     14.38384     10.35284     15.36773         0.795746     -0.116773      0.422385
C      5.61067      6.59456     10.35284        -0.317516     -0.613186      0.437552
C     15.36773      6.59456     10.62556         0.160397     -0.508744      0.065965
C      5.61067     14.38384     10.62556        -0.134293      0.409306     -0.019649
C     15.36773     14.38384     10.35284         0.350630     -0.085753     -0.125616
C      5.61067     10.35284      6.59456        -0.261115     -0.018524     -0.781552
C     15.36773     10.62556      6.59456         0.621382     -0.309509     -1.350245
C      5.61067     10.62556     14.38384        -0.378649     -0.006872      0.341144
C     15.36773     10.35284     14.38384         0.522935     -0.158227      1.205340
C     10.35284      6.59456      5.61067        -0.188553     -0.508408     -0.511539
C     10.62556      6.59456     15.36773         0.042250     -0.505381      0.248217
C     10.62556     14.38384      5.61067         0.108149      1.015535     -0.475852
C     10.35284     14.38384     15.36773         0.241733      0.509258      0.577360
C      6.59456      5.61067     10.35284        -0.191493     -0.819957      0.076650
C      6.59456     15.36773     10.62556        -1.435660      0.389817      0.099383
C     14.38384      5.61067     10.62556         0.648857     -0.257841     -0.006964
C     14.38384     15.36773     10.35284        -0.434182      0.678889     -0.342424
C     10.40319      3.19606      7.29314         0.013132      0.868876     -0.314832
C     10.35913      4.25547      6.23373        -0.022552     -0.465005      0.530018
C      0.08601      7.29314      7.29314        -0.006255     -0.304654     -0.482999
C      0.13007      6.23373      6.23373         0.016159      0.106580      0.171238
C      0.08601      3.19606      3.19606        -0.012510      0.637858      0.189513
C      0.13007      4.25547      4.25547        -0.086814     -0.170319     -0.204321
C     10.40319      7.29314      3.19606        -0.003036     -0.708846      0.540555
C     10.35913      6.23373      4.25547        -0.020137      0.326197     -0.610651
C      7.29314     10.40319      3.19606        -0.309681      0.031687      0.936115
C      6.23373     10.35913      4.25547         0.177557      0.040303     -0.124125
C      7.29314      0.08601      7.29314        -0.348742     -0.036887     -0.294820
C      6.23373      0.13007      6.23373         0.366664     -0.053164      0.373149
C      3.19606      0.08601      3.19606         0.563948     -0.030532      0.602848
C      4.25547      0.13007      4.25547        -0.095251     -0.038611     -0.377932
C      3.19606     10.40319      7.29314         0.732386      0.000281     -0.466056
C      4.25547     10.35913      6.23373        -0.170819      0.038828      0.102462
C      3.19606      7.29314     10.40319         0.627005     -1.309518     -0.018776
C      4.25547      6.23373     10.35913        -0.617917      0.877953      0.069370
C      7.29314      7.29314      0.08601        -0.636746     -0.202179     -0.015365
C      6.23373      6.23373      0.13007         0.201038      0.174768      0.010734
C      3.19606      3.19606      0.08601         0.263202      0.308249     -0.021364
C      4.25547      4.25547      0.13007        -0.065047     -0.043503     -0.000896
C      7.29314      3.19606     10.40319        -0.368045      0.903479      0.011165
C      6.23373      4.25547     10.35913         1.067905     -0.000050      0.004727
O     10.43466      3.58206      8.50569        -0.044752      0.039010      0.379171
O     10.54374     17.39634      8.50569        -0.034616     -0.156198      0.562086
O     10.54374      3.58206     12.47271         0.049065      0.061154     -0.310786
O     10.43466     17.39634     12.47271        -0.019651     -0.122756     -0.605388
O      8.50569     10.43466      3.58206         0.324325     -0.033100     -0.033593
O      8.50569     10.54374     17.39634         0.491933      0.043123     -0.149473
O     12.47271     10.54374      3.58206        -0.526251     -0.000556      0.118184
O     12.47271     10.43466     17.39634        -0.782270     -0.003996     -0.170705
O      3.58206      8.50569     10.43466         0.132672      1.082686      0.015801
O     17.39634      8.50569     10.54374        -0.034354      0.331333      0.071142
O      3.58206     12.47271     10.54374         0.077186     -0.485793      0.043781
O     17.39634     12.47271     10.43466        -0.164182     -0.828304      0.038935
O      3.58206     10.43466      8.50569        -0.062209     -0.068141      0.363078
O     17.39634     10.54374      8.50569        -0.124755      0.042507      0.447081
O      3.58206     10.54374     12.47271         0.080581     -0.011755     -0.581076
O     17.39634     10.43466     12.47271        -0.198385      0.056959     -0.786666
O     10.43466      8.50569      3.58206         0.041582      0.689248      0.175035
O     10.54374      8.50569     17.39634         0.066259      0.480411     -0.086127
O     10.54374     12.47271      3.58206        -0.010245     -0.725750      0.224586
O     10.43466     12.47271     17.39634         0.032928     -0.898480     -0.244244
O      8.50569      3.58206     10.43466         0.476747      0.048344     -0.034347
O      8.50569     17.39634     10.54374         0.671623     -0.251852     -0.050267
O     12.47271      3.58206     10.54374        -0.455167      0.144257      0.042361
O     12.47271     17.39634     10.43466        -0.512531     -0.000841     -0.010614
O     11.90042     11.90042     19.56718        -0.285500     -0.318918      0.249066
O     19.56718     19.56718     19.56718         0.285947      0.267426      0.306649
O     19.56718     11.90042     11.90042         0.263415     -0.326751     -0.238374
O     11.90042     19.56718     11.90042        -0.271904      0.279652     -0.268641
O      9.45224      1.03696      9.45224        -0.077895      0.042270     -0.073701
O      1.03696      9.45224      9.45224         0.029907     -0.162062     -0.098534
O      1.03696      1.03696      1.03696         0.009947      0.063196      0.173939
O      9.45224      9.45224      1.03696        -0.058588     -0.097236      0.113936
Zr     10.48920      2.52580     10.48920        -0.013944     -0.087649     -0.046526
Zr     10.48920     18.45260     10.48920         0.114685      0.329655      0.006050
Zr     10.48920     10.48920      2.52580         0.016208     -0.024054     -0.396577
Zr     10.48920     10.48920     18.45260        -0.188649     -0.053106      0.411102
Zr      2.52580     10.48920     10.48920        -0.371487      0.253738     -0.039525
Zr     18.45260     10.48920     10.48920         0.258022      0.017317     -0.291435
Pd      8.89137     10.07207     13.34363        -0.124640     -0.113501     -0.036650
Pd     10.62149      9.63664     10.70652         0.268078      0.113427     -0.078380
Pd     13.67512      8.46392     12.58410         0.008389      0.139747     -0.071936
Pd     10.94762     10.84207     15.02541        -0.015913      0.042627     -0.012037
Pd     12.91762     11.10319     13.04590         0.093478     -0.033515      0.095923
Pd     15.07647     10.97914     11.32770        -0.075038     -0.019007     -0.019705
Pd      6.58021      7.76850     12.36434         0.088244      0.044848      0.004432
Pd      9.29715      7.25333      9.81612         0.074424      0.075194     -0.033600
Pd      9.23806      7.46836     12.56888        -0.006035     -0.077664      0.047594
Pd     11.63751      7.21075     11.35993         0.031788     -0.023213      0.047542
Pd     11.72356      7.93601      8.80468        -0.098164     -0.075337     -0.004049
Pd      7.37654     11.76343     11.74124        -0.084491     -0.013645     -0.027292
Pd      9.24434     14.70398      9.47049        -0.054051      0.140620      0.074069
Pd      8.30774     12.50624     14.25201         0.000981      0.022768      0.026939
Pd     14.11232     14.24324      8.30946         0.014276     -0.046203      0.040333
Pd     11.54695     13.60557      8.76324        -0.069255      0.047498     -0.014948
Pd     14.17081     11.66777      8.90225        -0.080582      0.020552     -0.003139
Pd      8.74708     14.00701     12.11044        -0.048347     -0.019471     -0.019863
Pd     12.22359     13.55737     14.15297         0.021965     -0.037478     -0.150341
Pd     11.35895     14.35862     11.46217         0.035225     -0.097231      0.022027
Pd     14.04376     13.55145     12.24735         0.028245      0.042640      0.066722
Pd     12.40932     12.08028     10.73016        -0.098811     -0.243285      0.177757
Pd     12.74567     12.53386      6.69539         0.048408     -0.037981     -0.076735
Pd     13.95682      8.97336      7.91185        -0.012650      0.034977      0.041692
Pd      6.95534      8.48526      8.73890        -0.040226     -0.119343     -0.149169
Pd      5.64107     10.09434     10.58395        -0.102590      0.026405      0.042308
Pd      9.39898      9.41633      8.00047         0.010845     -0.103723      0.055954
Pd      8.53371      6.98844      7.21355         0.000218     -0.090166     -0.106240
Pd      9.75068     12.09894     10.38475         0.090321      0.037370     -0.029786
Pd     11.64263     10.75694      8.43548         0.124873      0.122385      0.003584
Pd     11.62275      9.05631      6.37566        -0.010779      0.083053     -0.025463
Pd     10.12077     11.33525      6.30988         0.083900     -0.067657     -0.310415
Ir     11.23750      9.10574     13.12223         0.018095      0.109799     -0.179261
Ir     13.19364      9.56601     10.30717         0.009833     -0.140818     -0.039230
Ir     10.52247     12.14720     12.78923        -0.012601      0.034344     -0.249179
Ir      7.66696     10.97431      9.20683         0.146843      0.285452     -0.256233
Ir      8.91139     12.61770      8.04258        -0.044302     -0.243627      0.500654
Ir      8.17129      9.28745     10.98475        -0.122945     -0.038049      0.177910
