26
# total energy = -177.58551447 eVH      0.09093      6.30108      7.50000        -0.022776      0.023939     -0.000000
H      2.97795      1.80398      7.50000         0.006878      0.003608     -0.000000
H      5.45938      5.37031      7.50000         0.012645      0.036562     -0.000000
H      8.38078     -2.58743      7.50000         0.022776     -0.023939     -0.000000
H      5.49376      1.90967      7.50000        -0.006878     -0.003608     -0.000000
H      3.01233     -1.65666      7.50000        -0.012645     -0.036562     -0.000000
C      7.54988      2.58243      7.50000         0.003025      0.002084     -0.000000
C      1.43524     -0.23621      7.50000        -0.023995      0.025615      0.000000
C      7.96028     -4.70052      7.50000         0.073532      0.003515     -0.000000
C      0.92183      1.13122      7.50000        -0.003025     -0.002084      0.000000
C      7.03647      3.94985      7.50000         0.023995     -0.025615     -0.000000
C      0.51143      8.41417      7.50000        -0.073532     -0.003515     -0.000000
C      7.58341     -3.32669      7.50000        -0.018956      0.032348     -0.000000
C      6.53259      1.58033      7.50000         0.035933     -0.005802      0.000000
C      2.80138     -0.58137      7.50000        -0.010614     -0.014914      0.000000
C      0.88830      7.04033      7.50000         0.018956     -0.032348      0.000000
C      1.93912      2.13331      7.50000        -0.035933      0.005802     -0.000000
C      5.67033      4.29501      7.50000         0.010614      0.014914     -0.000000
O      6.38866     -2.81297      7.50000         0.024369      0.003738      0.000000
O      6.73321      0.29891      7.50000        -0.037927     -0.026788      0.000000
O      3.89946      0.13273      7.50000        -0.022090     -0.022922     -0.000000
O      2.08305      6.52661      7.50000        -0.024369     -0.003738      0.000000
O      1.73851      3.41473      7.50000         0.037927      0.026788     -0.000000
O      4.57225      3.58091      7.50000         0.022090      0.022922      0.000000
Ir      5.42683     -1.15787      7.50000        -0.001034      0.027399      0.000000
Ir      3.04488      4.87152      7.50000         0.001034     -0.027399     -0.000000
