26
# total energy = -205.61027352 eVC      0.70363      1.25192      7.50000        -0.013748      0.005031     -0.000000
C     10.79670      6.56672      7.50000        -0.002925     -0.000012      0.000000
C      0.73800     11.42814      7.50000        -0.001664      0.007353      0.000000
C     11.53052      5.33350      7.50000         0.013748     -0.005031      0.000000
C      1.43745      0.01870      7.50000         0.002925      0.000012      0.000000
C     11.49615     -4.84271      7.50000         0.001664     -0.007353      0.000000
C     10.79586     -3.64895      7.50000         0.004620     -0.001724      0.000000
C     10.85613      4.12477      7.50000        -0.004583     -0.000583      0.000000
C      2.82617      0.04393      7.50000         0.020943     -0.007037     -0.000000
C      1.43829     10.23437      7.50000        -0.004620      0.001724      0.000000
C      1.37802      2.46065      7.50000         0.004583      0.000583      0.000000
C      9.40798      6.54149      7.50000        -0.020943      0.007037     -0.000000
N      7.76371      0.26045      7.50000        -0.002022      0.003876      0.000000
N      4.47044      6.32497      7.50000         0.002022     -0.003876      0.000000
N      4.00883      0.08355      7.50000        -0.024494     -0.003733     -0.000000
N     10.23055     -2.60945      7.50000        -0.004656      0.004773     -0.000000
N     10.29617      3.08238      7.50000         0.001867     -0.001195      0.000000
N      8.22532      6.50187      7.50000         0.024494      0.003733      0.000000
N      2.00360      9.19488      7.50000         0.004656     -0.004773     -0.000000
N      1.93798      3.50304      7.50000        -0.001867      0.001195      0.000000
Ir      2.99282      7.53253      7.50000         0.006099     -0.010798      0.000000
Ir      2.98126      5.13091      7.50000         0.009366      0.007091      0.000000
Ir      6.29760      6.40894      7.50000         0.013267     -0.003123     -0.000000
Ir      9.24133     -0.94711      7.50000        -0.006099      0.010798      0.000000
Ir      9.25289      1.45451      7.50000        -0.009366     -0.007091     -0.000000
Ir      5.93655      0.17648      7.50000        -0.013267      0.003123     -0.000000
