152
# total energy = -1022.86507932 eVH     10.35389      5.87395      7.64558         0.480048      0.030971      0.899256
H     10.62451     15.10445      7.64558        -0.049679      0.043435      0.775459
H     10.62451      5.87395     13.33282         0.145110      0.116156     -0.607776
H     10.35389     15.10445     13.33282        -0.259563     -0.079496     -0.562254
H      7.64558     10.35389      5.87395         0.331279     -0.035265      0.190359
H      7.64558     10.62451     15.10445         0.615956     -0.191414     -0.142183
H     13.33282     10.62451      5.87395        -0.851829     -0.315638      0.170103
H     13.33282     10.35389     15.10445        -0.450755     -0.081274     -0.068451
H      5.87395      7.64558     10.35389         0.128962      1.123394     -0.154912
H     15.10445      7.64558     10.62451        -0.170204      0.404572     -0.087246
H      5.87395     13.33282     10.62451         0.143173     -0.406973     -0.071782
H     15.10445     13.33282     10.35389        -0.079438     -0.970843     -0.182287
H      5.87395     10.35389      7.64558         0.128758      0.040317      0.481927
H     15.10445     10.62451      7.64558         0.120729     -0.206180      0.824627
H      5.87395     10.62451     13.33282         0.267219     -0.028598     -0.394207
H     15.10445     10.35389     13.33282        -0.152595      0.015271     -0.613881
H     10.35389      7.64558      5.87395         0.064780      0.855564      0.119543
H     10.62451      7.64558     15.10445         0.023902      0.558262     -0.143741
H     10.62451     13.33282      5.87395         0.059434     -0.600164      0.182755
H     10.35389     13.33282     15.10445        -0.252571     -0.889563     -0.108513
H      7.64558      5.87395     10.35389         0.523332      0.043207     -0.131245
H      7.64558     15.10445     10.62451         0.913994     -0.209766      0.287344
H     13.33282      5.87395     10.62451        -0.437944      0.186792     -0.058956
H     13.33282     15.10445     10.35389        -0.984963     -0.102925      0.256216
H     12.45634     12.45634     19.01126         0.266518      0.257406     -0.224853
H     19.01126     19.01126     19.01126        -0.247624     -0.235028     -0.262231
H     19.01126     12.45634     12.45634        -0.240861      0.270352      0.239257
H     12.45634     19.01126     12.45634         0.211290     -0.282679      0.252618
C     10.35284      5.61067      6.59456        -0.126861     -0.436664     -0.390701
C     10.62556     15.36773      6.59456         0.023211      0.346582     -1.161841
C     10.62556      5.61067     14.38384        -0.030057     -0.220324      0.728452
C     10.35284     15.36773     14.38384         0.175957      0.774630      0.158587
C      6.59456     10.35284      5.61067        -0.411849     -0.039998     -0.180032
C      6.59456     10.62556     15.36773        -0.785695      0.151352      0.349008
C     14.38384     10.62556      5.61067         0.612207      0.287441     -0.372577
C     14.38384     10.35284     15.36773         0.724793     -0.118935      0.423120
C      5.61067      6.59456     10.35284        -0.426513     -0.750430      0.282788
C     15.36773      6.59456     10.62556         0.196510     -0.467084      0.047584
C      5.61067     14.38384     10.62556        -0.253079      0.376717     -0.024787
C     15.36773     14.38384     10.35284         0.398459      0.137724      0.179030
C      5.61067     10.35284      6.59456        -0.309140     -0.014569     -0.888964
C     15.36773     10.62556      6.59456         0.575535     -0.161239     -1.236178
C      5.61067     10.62556     14.38384        -0.456211      0.007956      0.885396
C     15.36773     10.35284     14.38384         0.518688     -0.177350      1.241497
C     10.35284      6.59456      5.61067        -0.040743     -0.906522     -0.667166
C     10.62556      6.59456     15.36773         0.044916     -0.666931      0.294330
C     10.62556     14.38384      5.61067         0.045396      1.240945     -0.688367
C     10.35284     14.38384     15.36773         0.105976      0.603050      0.653525
C      6.59456      5.61067     10.35284        -0.210731     -0.896046      0.130155
C      6.59456     15.36773     10.62556        -1.722749      0.492519      0.047007
C     14.38384      5.61067     10.62556         0.585711     -0.227858     -0.007899
C     14.38384     15.36773     10.35284         0.125726      0.562236     -0.243197
C     10.40319      3.19606      7.29314         0.015069      0.901345     -0.253134
C     10.35913      4.25547      6.23373        -0.052064     -0.373241      0.606069
C      0.08601      7.29314      7.29314        -0.008818     -0.238295     -0.469478
C      0.13007      6.23373      6.23373         0.004339      0.119526      0.210949
C      0.08601      3.19606      3.19606        -0.016524      0.640978      0.182105
C      0.13007      4.25547      4.25547        -0.090903     -0.199543     -0.168505
C     10.40319      7.29314      3.19606        -0.002392     -0.692037      0.529609
C     10.35913      6.23373      4.25547        -0.009116      0.504295     -0.408200
C      7.29314     10.40319      3.19606        -0.339831      0.023057      0.860654
C      6.23373     10.35913      4.25547         0.209135      0.012199     -0.141506
C      7.29314      0.08601      7.29314        -0.309058     -0.046145     -0.273832
C      6.23373      0.13007      6.23373         0.269687     -0.058532      0.295909
C      3.19606      0.08601      3.19606         0.441375     -0.051900      1.291053
C      4.25547      0.13007      4.25547        -0.115450     -0.028938     -0.462505
C      3.19606     10.40319      7.29314         0.703442      0.014541     -0.264309
C      4.25547     10.35913      6.23373        -0.133754      0.030607      0.103477
C      3.19606      7.29314     10.40319         0.608262     -1.270797      0.024710
C      4.25547      6.23373     10.35913        -0.716934      0.843065      0.048369
C      7.29314      7.29314      0.08601        -0.656760     -0.171132     -0.022008
C      6.23373      6.23373      0.13007         0.172707      0.269500     -0.008109
C      3.19606      3.19606      0.08601         0.242006      0.251229     -0.019403
C      4.25547      4.25547      0.13007        -0.054561     -0.036754      0.011623
C      7.29314      3.19606     10.40319        -0.372260      0.800665      0.014827
C      6.23373      4.25547     10.35913         0.885164     -0.156904      0.007883
O     10.43466      3.58206      8.50569        -0.049223      0.034048      0.322070
O     10.54374     17.39634      8.50569        -0.024580     -0.181821      0.601375
O     10.54374      3.58206     12.47271         0.054772      0.063044     -0.324257
O     10.43466     17.39634     12.47271        -0.022882     -0.125877     -0.583942
O      8.50569     10.43466      3.58206         0.380178     -0.025122     -0.014348
O      8.50569     10.54374     17.39634         0.470964      0.053078     -0.143233
O     12.47271     10.54374      3.58206        -0.288655      0.047867     -0.073747
O     12.47271     10.43466     17.39634        -0.853242      0.020210     -0.225392
O      3.58206      8.50569     10.43466         0.042647      0.924686      0.039227
O     17.39634      8.50569     10.54374        -0.039547      0.338338      0.077912
O      3.58206     12.47271     10.54374         0.064172     -0.421466      0.064284
O     17.39634     12.47271     10.43466        -0.170626     -0.781895      0.020542
O      3.58206     10.43466      8.50569        -0.055851     -0.066582      0.226703
O     17.39634     10.54374      8.50569        -0.136522      0.042724      0.460334
O      3.58206     10.54374     12.47271        -0.015218     -0.051380     -0.888594
O     17.39634     10.43466     12.47271        -0.198224      0.043502     -0.767352
O     10.43466      8.50569      3.58206         0.044914      0.680184      0.190052
O     10.54374      8.50569     17.39634         0.053702      0.434642     -0.080386
O     10.54374     12.47271      3.58206        -0.006852     -0.728113      0.226039
O     10.43466     12.47271     17.39634         0.047671     -0.849540     -0.274453
O      8.50569      3.58206     10.43466         0.490899      0.073893     -0.038270
O      8.50569     17.39634     10.54374         0.654714     -0.252909     -0.061128
O     12.47271      3.58206     10.54374        -0.484825      0.163472      0.039663
O     12.47271     17.39634     10.43466        -0.530563     -0.036913     -0.029140
O     11.90042     11.90042     19.56718        -0.304391     -0.312382      0.264357
O     19.56718     19.56718     19.56718         0.286892      0.271626      0.320714
O     19.56718     11.90042     11.90042         0.279246     -0.330671     -0.244811
O     11.90042     19.56718     11.90042        -0.229536      0.290165     -0.241004
O      9.45224      1.03696      9.45224        -0.074734      0.047307     -0.066977
O      1.03696      9.45224      9.45224         0.053846     -0.145679     -0.058173
O      1.03696      1.03696      1.03696         0.042475      0.033334      0.187483
O      9.45224      9.45224      1.03696        -0.040582     -0.092507      0.121883
Zr     10.48920      2.52580     10.48920        -0.007815     -0.073428     -0.023825
Zr     10.48920     18.45260     10.48920         0.060395      0.308017     -0.071978
Zr     10.48920     10.48920      2.52580        -0.100948      0.015315     -0.372451
Zr     10.48920     10.48920     18.45260        -0.134071     -0.152048      0.329597
Zr      2.52580     10.48920     10.48920        -0.351077      0.315896     -0.461879
Zr     18.45260     10.48920     10.48920         0.244056      0.036648     -0.263583
Pd      9.04025     10.25674     13.32965        -0.021873     -0.022836      0.012049
Pd     10.58400      9.72434     10.97921        -0.004583     -0.001919     -0.072482
Pd     13.76454      8.53929     12.68407         0.009527      0.003448     -0.007322
Pd     11.00112     11.07070     15.01611        -0.002814     -0.015046      0.006855
Pd     12.85181     11.17580     13.01033         0.054875      0.002760      0.027600
Pd     14.98320     10.93944     11.34251         0.020785      0.014929     -0.000338
Pd      6.64968      7.44304     12.34152        -0.006056      0.015731      0.005144
Pd      9.22997      7.26615     10.11651         0.007542      0.003961     -0.039459
Pd      9.26594      7.60232     12.79268         0.014351     -0.012621     -0.012685
Pd     11.69770      7.28723     11.46272         0.006844      0.001285     -0.011757
Pd     11.40693      7.99371      8.86056         0.040651      0.014887     -0.016618
Pd      7.26413     11.83418     11.95279        -0.002092     -0.008185     -0.024288
Pd      8.90850     14.67704      9.33642         0.036896      0.011752      0.018298
Pd      8.41767     12.65268     14.32007        -0.013646     -0.006292      0.012371
Pd     13.55076     14.10116      8.54905         0.072625      0.010966     -0.051058
Pd     11.00068     13.34862      8.52692         0.093147      0.035026      0.031159
Pd     14.09390     11.52856      8.92653        -0.012002      0.039260     -0.011473
Pd      8.62204     14.10533     12.10230         0.007317      0.002524     -0.003342
Pd     12.24221     13.72707     14.02489        -0.005263     -0.001983      0.010436
Pd     11.16078     14.43363     11.16125         0.027678     -0.001054      0.046228
Pd     14.05817     13.55101     12.17423        -0.006406      0.013884     -0.005436
Pd     12.31084     12.15308     10.67290         0.010377     -0.026056     -0.010413
Pd     12.67446     12.33895      6.71287         0.009629      0.039006      0.004423
Pd     13.66976      8.94171      7.92559         0.022982      0.007575      0.009894
Pd      6.86412      8.46299      8.85142         0.019652      0.025354     -0.002676
Pd      5.52829      9.94036     11.25569         0.016272      0.033078     -0.059378
Pd      9.15550      9.73713      8.30851         0.022818     -0.009263     -0.013154
Pd      8.81174      7.23391      7.45573        -0.017649     -0.010090     -0.030093
Pd      9.53183     12.08497     10.42282         0.009313      0.001539     -0.018872
Pd     11.54088     10.71416      8.56867         0.014832     -0.005694     -0.052906
Pd     11.25556      9.23218      6.43749         0.037437     -0.008518      0.007850
Pd      9.91459     11.54768      6.38553         0.028955     -0.040524     -0.013272
Ir     11.35145      9.10323     13.35482        -0.002444     -0.016552     -0.006894
Ir     13.07714      9.48863     10.39459         0.001518     -0.010856     -0.017878
Ir     10.53144     12.35432     12.71082        -0.017218     -0.011666      0.005630
Ir      7.15619     10.98216      9.49957         0.070220      0.006304     -0.026817
Ir      8.41980     12.46503      8.18082         0.048849     -0.008308      0.028401
Ir      8.06830      9.29748     11.11647        -0.023300      0.030643     -0.021001
