152
# total energy = -1022.83938001 eVH     10.35389      5.87395      7.64558         0.470945      0.020422      0.891054
H     10.62451     15.10445      7.64558        -0.034249      0.049378      0.756895
H     10.62451      5.87395     13.33282         0.143270      0.115722     -0.605282
H     10.35389     15.10445     13.33282        -0.240200     -0.083530     -0.547290
H      7.64558     10.35389      5.87395         0.329646     -0.036129      0.188994
H      7.64558     10.62451     15.10445         0.614675     -0.189057     -0.145275
H     13.33282     10.62451      5.87395        -0.847042     -0.333256      0.169613
H     13.33282     10.35389     15.10445        -0.439489     -0.073713     -0.071343
H      5.87395      7.64558     10.35389         0.130499      1.101916     -0.173662
H     15.10445      7.64558     10.62451        -0.171067      0.401393     -0.085720
H      5.87395     13.33282     10.62451         0.142887     -0.407058     -0.073417
H     15.10445     13.33282     10.35389        -0.075164     -0.967017     -0.205422
H      5.87395     10.35389      7.64558         0.127368      0.036986      0.483032
H     15.10445     10.62451      7.64558         0.109012     -0.208738      0.809771
H      5.87395     10.62451     13.33282         0.272688     -0.026848     -0.390612
H     15.10445     10.35389     13.33282        -0.161590      0.019001     -0.616283
H     10.35389      7.64558      5.87395         0.064183      0.885584      0.103487
H     10.62451      7.64558     15.10445         0.026152      0.557300     -0.142896
H     10.62451     13.33282      5.87395         0.062746     -0.594904      0.173992
H     10.35389     13.33282     15.10445        -0.245789     -0.905106     -0.115405
H      7.64558      5.87395     10.35389         0.530176      0.043673     -0.138408
H      7.64558     15.10445     10.62451         0.934409     -0.196275      0.307839
H     13.33282      5.87395     10.62451        -0.437515      0.186509     -0.059912
H     13.33282     15.10445     10.35389        -1.061642     -0.095499      0.282400
H     12.45634     12.45634     19.01126         0.266705      0.256965     -0.225269
H     19.01126     19.01126     19.01126        -0.246834     -0.235643     -0.262220
H     19.01126     12.45634     12.45634        -0.239805      0.271127      0.239652
H     12.45634     19.01126     12.45634         0.210194     -0.283570      0.253097
C     10.35284      5.61067      6.59456        -0.102835     -0.450514     -0.400739
C     10.62556     15.36773      6.59456         0.015849      0.362148     -1.132734
C     10.62556      5.61067     14.38384        -0.029811     -0.221005      0.724738
C     10.35284     15.36773     14.38384         0.175981      0.768592      0.145823
C      6.59456     10.35284      5.61067        -0.407549     -0.041749     -0.178611
C      6.59456     10.62556     15.36773        -0.775773      0.148983      0.345232
C     14.38384     10.62556      5.61067         0.602189      0.295466     -0.361219
C     14.38384     10.35284     15.36773         0.708581     -0.118574      0.425794
C      5.61067      6.59456     10.35284        -0.426520     -0.730931      0.277353
C     15.36773      6.59456     10.62556         0.199909     -0.457229      0.048637
C      5.61067     14.38384     10.62556        -0.265184      0.380837     -0.024413
C     15.36773     14.38384     10.35284         0.406982      0.180523      0.214844
C      5.61067     10.35284      6.59456        -0.312589     -0.018195     -0.897636
C     15.36773     10.62556      6.59456         0.579991     -0.161247     -1.230684
C      5.61067     10.62556     14.38384        -0.459066      0.007799      0.921307
C     15.36773     10.35284     14.38384         0.515879     -0.182683      1.255187
C     10.35284      6.59456      5.61067        -0.029164     -0.969540     -0.671384
C     10.62556      6.59456     15.36773         0.044950     -0.662451      0.292665
C     10.62556     14.38384      5.61067         0.047276      1.248080     -0.706012
C     10.35284     14.38384     15.36773         0.108790      0.630205      0.635723
C      6.59456      5.61067     10.35284        -0.220595     -0.887566      0.133455
C      6.59456     15.36773     10.62556        -1.734010      0.493875      0.030593
C     14.38384      5.61067     10.62556         0.583383     -0.229123     -0.008509
C     14.38384     15.36773     10.35284         0.250570      0.539043     -0.241854
C     10.40319      3.19606      7.29314         0.014705      0.891326     -0.250806
C     10.35913      4.25547      6.23373        -0.057977     -0.362642      0.609553
C      0.08601      7.29314      7.29314        -0.008736     -0.239082     -0.464487
C      0.13007      6.23373      6.23373        -0.002549      0.120114      0.202637
C      0.08601      3.19606      3.19606        -0.016966      0.646438      0.186501
C      0.13007      4.25547      4.25547        -0.088658     -0.199721     -0.167372
C     10.40319      7.29314      3.19606        -0.003046     -0.687883      0.520406
C     10.35913      6.23373      4.25547        -0.014410      0.498590     -0.411778
C      7.29314     10.40319      3.19606        -0.339134      0.022936      0.884134
C      6.23373     10.35913      4.25547         0.212747      0.010933     -0.148088
C      7.29314      0.08601      7.29314        -0.305804     -0.046089     -0.279443
C      6.23373      0.13007      6.23373         0.267848     -0.056935      0.289738
C      3.19606      0.08601      3.19606         0.429975     -0.051217      1.331687
C      4.25547      0.13007      4.25547        -0.119954     -0.023709     -0.463032
C      3.19606     10.40319      7.29314         0.691138      0.014316     -0.265935
C      4.25547     10.35913      6.23373        -0.132192      0.027440      0.101080
C      3.19606      7.29314     10.40319         0.603239     -1.265074      0.025714
C      4.25547      6.23373     10.35913        -0.728945      0.828258      0.048123
C      7.29314      7.29314      0.08601        -0.640235     -0.173797     -0.022582
C      6.23373      6.23373      0.13007         0.169940      0.274989     -0.009194
C      3.19606      3.19606      0.08601         0.240004      0.251185     -0.020044
C      4.25547      4.25547      0.13007        -0.055872     -0.038411      0.013760
C      7.29314      3.19606     10.40319        -0.370429      0.802321      0.017532
C      6.23373      4.25547     10.35913         0.863110     -0.174016      0.014278
O     10.43466      3.58206      8.50569        -0.049682      0.037915      0.324080
O     10.54374     17.39634      8.50569        -0.021884     -0.180346      0.600201
O     10.54374      3.58206     12.47271         0.054962      0.061275     -0.327100
O     10.43466     17.39634     12.47271        -0.023497     -0.126707     -0.581329
O      8.50569     10.43466      3.58206         0.373980     -0.025331     -0.018861
O      8.50569     10.54374     17.39634         0.469557      0.053122     -0.142210
O     12.47271     10.54374      3.58206        -0.276018      0.051004     -0.084873
O     12.47271     10.43466     17.39634        -0.846219      0.019686     -0.225153
O      3.58206      8.50569     10.43466         0.040520      0.912927      0.041066
O     17.39634      8.50569     10.54374        -0.043275      0.344299      0.077969
O      3.58206     12.47271     10.54374         0.064531     -0.418770      0.063804
O     17.39634     12.47271     10.43466        -0.169665     -0.780824      0.019595
O      3.58206     10.43466      8.50569        -0.051837     -0.064562      0.230127
O     17.39634     10.54374      8.50569        -0.136604      0.044138      0.464257
O      3.58206     10.54374     12.47271        -0.035242     -0.049419     -0.900128
O     17.39634     10.43466     12.47271        -0.197705      0.047242     -0.776241
O     10.43466      8.50569      3.58206         0.044411      0.675570      0.190693
O     10.54374      8.50569     17.39634         0.052922      0.438417     -0.081642
O     10.54374     12.47271      3.58206        -0.007952     -0.732254      0.224838
O     10.43466     12.47271     17.39634         0.046834     -0.840076     -0.271770
O      8.50569      3.58206     10.43466         0.488199      0.074405     -0.038959
O      8.50569     17.39634     10.54374         0.642674     -0.246951     -0.057814
O     12.47271      3.58206     10.54374        -0.484781      0.164229      0.039758
O     12.47271     17.39634     10.43466        -0.527441     -0.037630     -0.030294
O     11.90042     11.90042     19.56718        -0.304213     -0.312129      0.265948
O     19.56718     19.56718     19.56718         0.286479      0.273810      0.321543
O     19.56718     11.90042     11.90042         0.277421     -0.330732     -0.244357
O     11.90042     19.56718     11.90042        -0.226375      0.291563     -0.240126
O      9.45224      1.03696      9.45224        -0.074554      0.048531     -0.066502
O      1.03696      9.45224      9.45224         0.056539     -0.141902     -0.056895
O      1.03696      1.03696      1.03696         0.044659      0.032620      0.187461
O      9.45224      9.45224      1.03696        -0.041292     -0.089994      0.124324
Zr     10.48920      2.52580     10.48920        -0.004613     -0.073725     -0.024486
Zr     10.48920     18.45260     10.48920         0.051736      0.297857     -0.078073
Zr     10.48920     10.48920      2.52580        -0.099644      0.013842     -0.369073
Zr     10.48920     10.48920     18.45260        -0.129867     -0.155270      0.323499
Zr      2.52580     10.48920     10.48920        -0.352130      0.317241     -0.477850
Zr     18.45260     10.48920     10.48920         0.249264      0.030144     -0.272294
Pd      9.04104     10.25927     13.32100        -0.009872     -0.007614      0.002319
Pd     10.56892      9.72110     10.97339         0.009249      0.003761     -0.023140
Pd     13.77254      8.52761     12.70295        -0.001957      0.002926     -0.014079
Pd     11.00408     11.08028     15.00486         0.001415     -0.016674      0.006518
Pd     12.85276     11.16679     12.99046         0.017006      0.000644      0.008348
Pd     15.00004     10.92972     11.34887         0.003717      0.018629     -0.010394
Pd      6.65090      7.42686     12.34517        -0.004759      0.021619      0.000322
Pd      9.22932      7.26026     10.12344         0.011469      0.009514     -0.028023
Pd      9.26547      7.60711     12.79703         0.002564     -0.011328     -0.014931
Pd     11.70259      7.28837     11.47140        -0.001583      0.002829     -0.012627
Pd     11.40735      7.99273      8.86983         0.029392      0.001713     -0.012271
Pd      7.25450     11.83539     11.96161         0.006293      0.000639     -0.009258
Pd      8.87213     14.66249      9.31493         0.034022      0.003944      0.013310
Pd      8.42392     12.65459     14.32037        -0.004336     -0.007752      0.000737
Pd     13.46460     14.09323      8.59012         0.071715      0.024535     -0.028794
Pd     10.93862     13.30847      8.49246         0.052916      0.022155      0.018985
Pd     14.10650     11.52748      8.93834         0.002970      0.017165     -0.009555
Pd      8.61508     14.10675     12.09888         0.013819     -0.006015      0.004961
Pd     12.24511     13.70603     14.03058        -0.000213      0.002738      0.008269
Pd     11.13593     14.43734     11.11605         0.025107     -0.011535      0.031875
Pd     14.04852     13.54743     12.16545        -0.011998      0.017225     -0.000702
Pd     12.29722     12.15877     10.65708         0.006541     -0.018632      0.003891
Pd     12.68253     12.33582      6.71994         0.023337      0.033285     -0.011535
Pd     13.67793      8.93682      7.95287         0.034588     -0.001862     -0.001315
Pd      6.86979      8.46762      8.84492         0.006057      0.007468     -0.005221
Pd      5.52024      9.93239     11.28208         0.006459      0.013615     -0.044353
Pd      9.15420      9.76872      8.33059         0.029026     -0.015326     -0.008304
Pd      8.84547      7.27460      7.45769        -0.027483     -0.016284     -0.030814
Pd      9.50740     12.07955     10.41867         0.017163      0.005450      0.006150
Pd     11.55994     10.70007      8.56332         0.013230      0.004550     -0.023070
Pd     11.24957      9.22171      6.44545         0.040386     -0.020964     -0.005619
Pd      9.91871     11.54634      6.37738         0.028935     -0.022609     -0.000421
Ir     11.35147      9.10471     13.35474         0.000627     -0.000289     -0.027067
Ir     13.07069      9.49276     10.41775         0.015386      0.007384     -0.014696
Ir     10.53270     12.36143     12.69599        -0.010349     -0.013253     -0.002749
Ir      7.12035     10.98305      9.51542         0.046366      0.009467     -0.022664
Ir      8.38472     12.43845      8.17066         0.046082      0.008172     -0.015506
Ir      8.05257      9.29078     11.11399         0.016313      0.002850     -0.003055
