152
# total energy = -1024.39639516 eVH     10.35389      5.87395      7.64558         0.479542      0.030061      0.736797
H     10.62451     15.10445      7.64558         0.047902     -0.198402      0.622497
H     10.62451      5.87395     13.33282         0.091558      0.160528     -0.563493
H     10.35389     15.10445     13.33282        -0.462825     -0.040096     -0.748449
H      7.64558     10.35389      5.87395         0.339218      0.020556      0.161964
H      7.64558     10.62451     15.10445         0.900616     -0.255716      0.024181
H     13.33282     10.62451      5.87395        -0.754752     -0.078018      0.152609
H     13.33282     10.35389     15.10445        -0.882999     -0.402822      0.201832
H      5.87395      7.64558     10.35389         0.172824      0.743209     -0.303784
H     15.10445      7.64558     10.62451        -0.138749      0.388212     -0.024650
H      5.87395     13.33282     10.62451         0.159457     -0.520766     -0.110767
H     15.10445     13.33282     10.35389        -0.091178     -1.197884      0.067388
H      5.87395     10.35389      7.64558         0.142555      0.157423      0.516834
H     15.10445     10.62451      7.64558         0.002488      0.098698      1.043382
H      5.87395     10.62451     13.33282         0.086185     -0.043688     -0.450174
H     15.10445     10.35389     13.33282        -0.155254     -0.169793     -0.476976
H     10.35389      7.64558      5.87395         0.088098      1.013226      0.233566
H     10.62451      7.64558     15.10445         0.002218      0.271056     -0.166507
H     10.62451     13.33282      5.87395        -0.104539     -0.393857      0.321953
H     10.35389     13.33282     15.10445        -0.437432     -0.595535     -0.007724
H      7.64558      5.87395     10.35389         0.506884      0.098610     -0.074755
H      7.64558     15.10445     10.62451         0.928291     -0.230211     -0.156919
H     13.33282      5.87395     10.62451        -0.593020      0.106905     -0.070821
H     13.33282     15.10445     10.35389        -0.591709     -0.056526      0.241649
H     12.45634     12.45634     19.01126         0.234760      0.279473     -0.236726
H     19.01126     19.01126     19.01126        -0.250201     -0.248614     -0.242116
H     19.01126     12.45634     12.45634        -0.266009      0.265308      0.220312
H     12.45634     19.01126     12.45634         0.237509     -0.266464      0.238856
C     10.35284      5.61067      6.59456        -0.203994     -0.686394      0.096573
C     10.62556     15.36773      6.59456        -0.045367      0.386732     -0.840726
C     10.62556      5.61067     14.38384        -0.005534     -0.054894      0.682049
C     10.35284     15.36773     14.38384         0.190445      0.695535      0.164423
C      6.59456     10.35284      5.61067        -0.339011     -0.019187     -0.294515
C      6.59456     10.62556     15.36773        -1.066718      0.268905      0.303208
C     14.38384     10.62556      5.61067         0.412828      0.358334     -0.678940
C     14.38384     10.35284     15.36773         1.027506      0.010986      0.267070
C      5.61067      6.59456     10.35284        -0.385491     -0.394535      0.372562
C     15.36773      6.59456     10.62556         0.189818     -0.500498      0.017493
C      5.61067     14.38384     10.62556        -0.201684      0.582689      0.006659
C     15.36773     14.38384     10.35284         0.345979      0.049301     -0.134313
C      5.61067     10.35284      6.59456        -0.321979     -0.079918     -1.020710
C     15.36773     10.62556      6.59456         0.872705     -0.337560     -0.977688
C      5.61067     10.62556     14.38384        -0.430647      0.030535      0.302607
C     15.36773     10.35284     14.38384         0.653559     -0.095659      1.081397
C     10.35284      6.59456      5.61067        -0.230652     -0.570169     -0.928194
C     10.62556      6.59456     15.36773         0.056978     -0.269695      0.045603
C     10.62556     14.38384      5.61067         0.077840      1.202970     -0.425365
C     10.35284     14.38384     15.36773         0.265430      0.153383      0.697957
C      6.59456      5.61067     10.35284        -0.209853     -0.743644      0.123501
C      6.59456     15.36773     10.62556        -1.217206      0.253468      0.152259
C     14.38384      5.61067     10.62556         1.025346     -0.294131      0.035247
C     14.38384     15.36773     10.35284        -0.495416      0.811690     -0.401113
C     10.40319      3.19606      7.29314        -0.029453      0.863402     -0.408500
C     10.35913      4.25547      6.23373         0.054310     -0.500515      0.550194
C      0.08601      7.29314      7.29314        -0.022203     -0.430002     -0.349665
C      0.13007      6.23373      6.23373        -0.022688      0.015657      0.102592
C      0.08601      3.19606      3.19606         0.007989      1.268155      0.190171
C      0.13007      4.25547      4.25547        -0.046166     -0.216037     -0.204580
C     10.40319      7.29314      3.19606        -0.013586     -1.052622      0.368062
C     10.35913      6.23373      4.25547         0.033216      0.465590     -0.669266
C      7.29314     10.40319      3.19606        -0.316077      0.034756      0.721976
C      6.23373     10.35913      4.25547         0.160365      0.075736     -0.103966
C      7.29314      0.08601      7.29314        -0.636140     -0.023581     -0.271516
C      6.23373      0.13007      6.23373         0.378233     -0.081465      0.509440
C      3.19606      0.08601      3.19606         1.000120     -0.006884      0.252226
C      4.25547      0.13007      4.25547        -0.142984     -0.040768     -0.514428
C      3.19606     10.40319      7.29314         0.382080     -0.013086     -0.962939
C      4.25547     10.35913      6.23373        -0.275312      0.095084      0.250094
C      3.19606      7.29314     10.40319         0.507535     -1.313481     -0.040386
C      4.25547      6.23373     10.35913        -0.523696      0.759316      0.108747
C      7.29314      7.29314      0.08601        -0.396439     -0.222715     -0.001738
C      6.23373      6.23373      0.13007         0.158334      0.144483     -0.004100
C      3.19606      3.19606      0.08601         0.253421      0.258145     -0.017149
C      4.25547      4.25547      0.13007        -0.118150     -0.056030      0.009799
C      7.29314      3.19606     10.40319        -0.387462      0.653985      0.008495
C      6.23373      4.25547     10.35913         1.110863     -0.071012      0.053120
O     10.43466      3.58206      8.50569        -0.026051      0.048318      0.447541
O     10.54374     17.39634      8.50569        -0.006660     -0.105742      0.455824
O     10.54374      3.58206     12.47271         0.040207     -0.105947     -0.131791
O     10.43466     17.39634     12.47271        -0.058686     -0.044614     -0.470084
O      8.50569     10.43466      3.58206         0.295108     -0.032496     -0.031847
O      8.50569     10.54374     17.39634         0.711048      0.024986     -0.192802
O     12.47271     10.54374      3.58206        -0.787530     -0.039833      0.151306
O     12.47271     10.43466     17.39634        -0.296448     -0.027117      0.029783
O      3.58206      8.50569     10.43466         0.156020      1.081967     -0.035495
O     17.39634      8.50569     10.54374        -0.095571      0.426489      0.058519
O      3.58206     12.47271     10.54374         0.068364     -0.402126      0.037525
O     17.39634     12.47271     10.43466        -0.159600     -0.685688     -0.006941
O      3.58206     10.43466      8.50569         0.061462     -0.068827      0.797308
O     17.39634     10.54374      8.50569        -0.063646      0.047145      0.336494
O      3.58206     10.54374     12.47271        -0.014109      0.037969     -0.240053
O     17.39634     10.43466     12.47271        -0.250059      0.004999     -0.710217
O     10.43466      8.50569      3.58206         0.117910      0.832732      0.194602
O     10.54374      8.50569     17.39634         0.033359      0.627887     -0.149855
O     10.54374     12.47271      3.58206         0.004544     -1.012419      0.180285
O     10.43466     12.47271     17.39634        -0.035433     -0.915061     -0.204941
O      8.50569      3.58206     10.43466         0.555174      0.119752     -0.016133
O      8.50569     17.39634     10.54374         0.517901     -0.199657     -0.010409
O     12.47271      3.58206     10.54374        -0.472228      0.158199      0.057547
O     12.47271     17.39634     10.43466        -0.413299      0.023630     -0.005124
O     11.90042     11.90042     19.56718        -0.265207     -0.329421      0.254602
O     19.56718     19.56718     19.56718         0.280822      0.291815      0.282942
O     19.56718     11.90042     11.90042         0.299976     -0.301277     -0.203124
O     11.90042     19.56718     11.90042        -0.267819      0.285760     -0.247708
O      9.45224      1.03696      9.45224        -0.079272      0.045524     -0.060783
O      1.03696      9.45224      9.45224         0.040722     -0.153191     -0.120202
O      1.03696      1.03696      1.03696         0.021720      0.118084      0.199795
O      9.45224      9.45224      1.03696        -0.066979     -0.086336      0.119865
Zr     10.48920      2.52580     10.48920        -0.046698     -0.115791     -0.167734
Zr     10.48920     18.45260     10.48920         0.014356      0.214329     -0.022768
Zr     10.48920     10.48920      2.52580        -0.158920     -0.186076     -0.520155
Zr     10.48920     10.48920     18.45260        -0.020350      0.004307      0.449247
Zr      2.52580     10.48920     10.48920        -0.357953      0.290748      0.193807
Zr     18.45260     10.48920     10.48920         0.202329      0.050499     -0.205285
Pd      8.37204      9.74057     13.23676        -0.010514     -0.010529     -0.035183
Pd     10.51172      9.46434     10.19115        -0.030346      0.024859      0.039321
Pd     13.11152      8.74614     12.46687        -0.032600      0.054423     -0.012671
Pd     10.32779     10.75562     15.04946        -0.010386     -0.017070      0.038090
Pd     12.85371     11.34648     13.52899         0.018495      0.005393      0.030875
Pd     14.85950     10.66605     11.35499         0.002879     -0.070309      0.006551
Pd      6.85831      7.60464     12.30029         0.020963     -0.019772      0.025680
Pd      9.22236      7.20594      9.48045        -0.011089      0.006289     -0.015493
Pd      9.55082      7.55461     12.20689         0.022459     -0.010120     -0.000997
Pd     11.75186      7.11388     10.82522        -0.006288     -0.030554      0.018286
Pd     11.63364      7.82920      8.27253        -0.019109      0.003101     -0.019930
Pd      7.15420     11.69643     11.54847         0.009812     -0.026568     -0.031948
Pd      9.28958     14.32436      9.28769        -0.003224     -0.023883     -0.023626
Pd      8.15539     12.33705     14.06041        -0.022449     -0.055896     -0.021795
Pd     14.24360     14.21239      8.33781        -0.021574     -0.018404      0.017354
Pd     11.74895     13.31998      8.79850        -0.033939      0.009750      0.057332
Pd     14.12642     11.63684      8.98877         0.006730     -0.024941     -0.018153
Pd      8.71701     13.97673     12.03029         0.010985      0.006926      0.014226
Pd     12.22029     13.97036     13.94725        -0.024709      0.014125      0.032914
Pd     11.40732     14.12167     11.31244        -0.000730      0.012467     -0.025073
Pd     14.01448     13.31830     12.09199        -0.001036      0.001043     -0.007427
Pd     12.27495     11.52900     10.87709        -0.046223      0.021267      0.044474
Pd     12.99420     12.63769      6.59374         0.046608     -0.045184     -0.042530
Pd     13.96324      8.83746      7.57800         0.018217      0.007950     -0.023370
Pd      6.98426      8.45819      8.40057        -0.029971      0.027279     -0.014459
Pd      5.55017     10.04481     10.03922         0.028681     -0.000491      0.060317
Pd      9.41026      9.46671      7.49220        -0.021901     -0.026194     -0.059697
Pd      8.48509      6.97796      6.88083         0.015259      0.007003      0.003733
Pd      9.64956     11.94278     10.54472         0.054804     -0.000932      0.044452
Pd     11.82099     10.62180      8.05031         0.000069     -0.023493      0.020512
Pd     11.78643      8.93676      5.85530        -0.005527     -0.018247      0.033963
Pd     10.61818     11.34068      5.74782        -0.034971     -0.003345     -0.009890
Ir     10.84072      9.78754     12.69524        -0.031628      0.001742     -0.009939
Ir     13.16817      9.26622      9.95395         0.008655     -0.013688      0.020375
Ir     10.50075     12.24361     12.90473        -0.008680      0.063793     -0.057369
Ir      7.75442     11.02009      9.05156        -0.095822     -0.044880      0.020016
Ir      9.60696     12.06611      7.98384         0.004025      0.053647     -0.059587
Ir      8.02339      9.22926     10.71581        -0.016859     -0.059301      0.093432
