152
# total energy = -1005.47798062 eVH     10.35389      5.87395      7.64558         0.162543      0.100421      0.579538
H     10.62451     15.10445      7.64558        -0.125483     -0.145036      0.509379
H     10.62451      5.87395     13.33282         0.566870      0.079506     -0.856436
H     10.35389     15.10445     13.33282         0.021548     -0.155753     -0.396111
H      7.64558     10.35389      5.87395         0.355113      0.039145      0.164509
H      7.64558     10.62451     15.10445         0.906685      0.550795      0.016334
H     13.33282     10.62451      5.87395        -0.434881      0.356097      0.108863
H     13.33282     10.35389     15.10445        -0.843763     -0.071932      0.000891
H      5.87395      7.64558     10.35389         0.325646      1.231881      0.033561
H     15.10445      7.64558     10.62451        -0.108325      0.490820      0.299495
H      5.87395     13.33282     10.62451         0.181526     -0.606379      0.055156
H     15.10445     13.33282     10.35389        -0.083008     -0.952345     -0.201450
H      5.87395     10.35389      7.64558         0.208637      0.054579      0.440215
H     15.10445     10.62451      7.64558        -0.142722      0.522856      0.774834
H      5.87395     10.62451     13.33282         0.027678      0.451528     -1.072302
H     15.10445     10.35389     13.33282        -0.076746     -0.031991     -0.638100
H     10.35389      7.64558      5.87395         0.314127      1.188467      0.065978
H     10.62451      7.64558     15.10445         0.669123      0.688907     -0.219204
H     10.62451     13.33282      5.87395        -0.397242     -0.817477      0.273632
H     10.35389     13.33282     15.10445        -0.106095     -0.472767     -0.290996
H      7.64558      5.87395     10.35389         0.820230      0.058034     -0.198715
H      7.64558     15.10445     10.62451         0.800444     -0.178954      0.033965
H     13.33282      5.87395     10.62451        -0.707357      0.163006      0.507668
H     13.33282     15.10445     10.35389        -0.378399     -0.120355     -0.091036
H     12.45634     12.45634     19.01126         0.246471      0.272363     -0.232750
H     19.01126     19.01126     19.01126        -0.276070     -0.250327     -0.237752
H     19.01126     12.45634     12.45634        -0.278469      0.262347      0.218966
H     12.45634     19.01126     12.45634         0.236426     -0.262173      0.274048
C     10.35284      5.61067      6.59456        -0.318145     -0.769593     -0.134983
C     10.62556     15.36773      6.59456         0.057101      0.317817     -0.277833
C     10.62556      5.61067     14.38384        -0.146451     -0.508828      0.345079
C     10.35284     15.36773     14.38384         0.018760      0.185738      0.343258
C      6.59456     10.35284      5.61067        -0.396285      0.011080     -0.244751
C      6.59456     10.62556     15.36773        -0.690960      0.104227      0.658022
C     14.38384     10.62556      5.61067        -0.278733     -0.457352     -0.681258
C     14.38384     10.35284     15.36773         1.042417     -0.088439      0.177672
C      5.61067      6.59456     10.35284        -0.746103     -0.281688     -0.335908
C     15.36773      6.59456     10.62556         0.527423      0.024522     -0.372204
C      5.61067     14.38384     10.62556        -0.212035      0.637442     -0.018149
C     15.36773     14.38384     10.35284         0.268037      0.955080      0.025261
C      5.61067     10.35284      6.59456        -0.301850      0.010636     -0.784950
C     15.36773     10.62556      6.59456         0.498948     -0.255970      0.214369
C      5.61067     10.62556     14.38384        -0.708951      0.003209      0.614037
C     15.36773     10.35284     14.38384         0.425145     -0.032311      0.990442
C     10.35284      6.59456      5.61067        -0.123576     -0.780281     -0.569100
C     10.62556      6.59456     15.36773        -0.050338     -0.489508      0.575369
C     10.62556     14.38384      5.61067         0.193621      1.181776     -0.347854
C     10.35284     14.38384     15.36773        -0.003074      0.846762      0.386694
C      6.59456      5.61067     10.35284         0.153480     -1.075430      0.288034
C      6.59456     15.36773     10.62556        -0.975640      0.230562      0.078980
C     14.38384      5.61067     10.62556         0.287681     -0.566986     -0.362905
C     14.38384     15.36773     10.35284         0.144556      0.357625     -0.077176
C     10.40319      3.19606      7.29314         0.003390      0.852337     -0.447201
C     10.35913      4.25547      6.23373         0.062653     -0.545821      0.111411
C      0.08601      7.29314      7.29314        -0.040645     -0.853487     -0.233592
C      0.13007      6.23373      6.23373        -0.047302      0.224034      0.435854
C      0.08601      3.19606      3.19606         0.021308      1.408606      0.263365
C      0.13007      4.25547      4.25547         0.009582     -0.592768     -0.284010
C     10.40319      7.29314      3.19606         0.002048     -0.334451      0.265141
C     10.35913      6.23373      4.25547         0.033091      0.021815     -0.734561
C      7.29314     10.40319      3.19606        -0.264431      0.017531      0.528554
C      6.23373     10.35913      4.25547         0.139523      0.042195     -0.058110
C      7.29314      0.08601      7.29314        -0.863231     -0.076800     -0.308254
C      6.23373      0.13007      6.23373         0.823123     -0.180736      0.413765
C      3.19606      0.08601      3.19606         0.899492     -0.028489      0.565443
C      4.25547      0.13007      4.25547        -0.529600     -0.101936     -0.660009
C      3.19606     10.40319      7.29314         0.544434     -0.011177     -0.769475
C      4.25547     10.35913      6.23373        -0.259401      0.064184      0.216306
C      3.19606      7.29314     10.40319         0.304205     -1.328093      0.022112
C      4.25547      6.23373     10.35913        -1.071517      0.025633      0.118162
C      7.29314      7.29314      0.08601        -0.444961     -0.432522     -0.013067
C      6.23373      6.23373      0.13007         0.559674      0.233742      0.019033
C      3.19606      3.19606      0.08601         0.447925      0.344095     -0.033471
C      4.25547      4.25547      0.13007        -0.131644     -0.573043     -0.046933
C      7.29314      3.19606     10.40319        -0.399299      0.455205      0.055560
C      6.23373      4.25547     10.35913         0.266685     -0.748922      0.140694
O     10.43466      3.58206      8.50569        -0.015010      0.052731      0.447092
O     10.54374     17.39634      8.50569         0.066027     -0.071394      0.331462
O     10.54374      3.58206     12.47271         0.025604     -0.118334     -0.140778
O     10.43466     17.39634     12.47271        -0.027802     -0.166190     -0.520295
O      8.50569     10.43466      3.58206         0.284492     -0.021198      0.013424
O      8.50569     10.54374     17.39634         0.802025     -0.048140     -0.178006
O     12.47271     10.54374      3.58206        -0.795851      0.098155      0.088941
O     12.47271     10.43466     17.39634        -0.476337      0.033500     -0.075508
O      3.58206      8.50569     10.43466         0.151220      1.098531     -0.035736
O     17.39634      8.50569     10.54374        -0.158669      0.591927      0.067143
O      3.58206     12.47271     10.54374         0.103884     -0.438318      0.034658
O     17.39634     12.47271     10.43466        -0.144236     -0.562746     -0.031489
O      3.58206     10.43466      8.50569         0.062477     -0.090241      0.606990
O     17.39634     10.54374      8.50569        -0.027597      0.089764      0.416810
O      3.58206     10.54374     12.47271         0.021191      0.036223     -0.493535
O     17.39634     10.43466     12.47271        -0.227345     -0.046952     -0.643631
O     10.43466      8.50569      3.58206        -0.038889      0.453533      0.139977
O     10.54374      8.50569     17.39634        -0.065897      0.716515     -0.224594
O     10.54374     12.47271      3.58206         0.033901     -0.994702      0.114442
O     10.43466     12.47271     17.39634         0.059859     -0.800170     -0.214102
O      8.50569      3.58206     10.43466         0.585844      0.151539     -0.053838
O      8.50569     17.39634     10.54374         0.534712     -0.179182     -0.002143
O     12.47271      3.58206     10.54374        -0.602788      0.192432      0.003641
O     12.47271     17.39634     10.43466        -0.254200      0.076730     -0.043764
O     11.90042     11.90042     19.56718        -0.264706     -0.311667      0.227962
O     19.56718     19.56718     19.56718         0.326270      0.292655      0.243647
O     19.56718     11.90042     11.90042         0.318347     -0.261377     -0.235489
O     11.90042     19.56718     11.90042        -0.239862      0.300576     -0.332432
O      9.45224      1.03696      9.45224         0.002789      0.065498     -0.134195
O      1.03696      9.45224      9.45224         0.083073     -0.075191     -0.172279
O      1.03696      1.03696      1.03696         0.109191      0.165440      0.028549
O      9.45224      9.45224      1.03696        -0.091884     -0.112390      0.011137
Zr     10.48920      2.52580     10.48920        -0.091011     -0.212931     -0.022960
Zr     10.48920     18.45260     10.48920        -0.097360      0.185750      0.192715
Zr     10.48920     10.48920      2.52580        -0.092550     -0.442449     -0.202163
Zr     10.48920     10.48920     18.45260        -0.143369      0.044544      0.439727
Zr      2.52580     10.48920     10.48920        -0.335281      0.296396      0.307423
Zr     18.45260     10.48920     10.48920         0.158386      0.019712     -0.098165
Pd     13.61158      8.95843      9.10962         0.014215     -0.007838      0.006231
Pd      5.69737      9.70673      9.96341         0.003350      0.028826      0.043438
Pd      6.86229     11.34696     11.71060        -0.013476      0.080549      0.014167
Pd     12.17318     13.13619      7.35355         0.022937     -0.031267     -0.031110
Pd     12.08766      7.89270      7.15540         0.027728      0.001960      0.041179
Pd      8.29080      7.05735      6.55292         0.006398     -0.001640     -0.016238
Pd     10.86090     11.30129      5.59041         0.012209     -0.015934     -0.024288
Pd     14.63720      8.53577      6.68416         0.000376     -0.008363      0.000028
Pd      9.62520     11.81268      8.01448         0.039462     -0.022615     -0.021633
Pd      6.68832      6.78871     12.30419         0.022787     -0.005878      0.004210
Pd      6.38959      7.54219      8.27912         0.009465      0.035637      0.004420
Pd      7.00898      8.88630     13.86254        -0.049372     -0.056663      0.041563
Pd     11.65591      6.54976      9.44518        -0.010027     -0.012786      0.039443
Pd      9.74723      9.29245      6.90531        -0.013108      0.019740     -0.025413
Pd      9.03860     13.97613      9.42517        -0.020730     -0.012617     -0.004855
Pd     10.04799      7.05091     11.50105        -0.033833      0.029781      0.050158
Pd     10.53091      8.96108      9.54702        -0.018625     -0.006363     -0.009862
Pd      9.36952     11.25361     10.61260        -0.028853      0.033250     -0.018408
Pd      8.90343      6.97121      9.11189        -0.017188      0.064452      0.007592
Pd      8.80145      6.95650     13.83030        -0.042686     -0.063992      0.055416
Pd      8.06969      8.88983     11.38883        -0.044506      0.033015      0.028666
Pd     11.94027     10.54158      7.84445         0.028962     -0.034624     -0.008361
Pd      7.14867     12.05465      9.16439        -0.016108      0.003218     -0.020499
Pd      8.01874      9.58038      8.79566         0.015851      0.018478     -0.000767
Pd     14.19721      6.50938      8.44412        -0.037287     -0.008139      0.002428
Pd     12.55095      8.25163     11.45575         0.004890      0.007703      0.015032
Pd      8.83201     11.33026     13.42865        -0.002290      0.019998     -0.005608
Pd     13.89726     11.93217      9.04161        -0.010412     -0.001245     -0.000391
Pd     12.86238     10.57201     13.08477         0.009905     -0.004788      0.010792
Pd     14.70825     10.29178     11.13110         0.002995      0.035551      0.007746
Pd     12.04561     10.73677     10.59316         0.020759     -0.006909      0.003025
Pd     11.45908     13.16521      9.88332        -0.024791     -0.021307     -0.019177
Pd     13.57055     12.81380     11.67713         0.000478     -0.008633     -0.004891
Pd     11.03310     12.54386     12.44433         0.012542     -0.009609      0.001621
Pd     11.10638     11.37158     14.87281        -0.010252     -0.018535      0.024942
Pd     10.47677      9.47955     12.57068        -0.016776      0.043763     -0.012851
Pd      9.45203      9.31778     15.03053        -0.010379     -0.017965     -0.016878
Pd      8.60846     13.50294     11.99107         0.012101      0.026729     -0.000549
