15
# total energy = -78.61770732 eVC      9.63832      4.79684      7.50000         0.021782      0.023574     -0.000000
C      0.64738      1.14161      7.50000        -0.021782     -0.023574      0.000000
C      1.31235      0.01015      7.50000        -0.031307      0.007077      0.000000
C      8.97334      5.92830      7.50000         0.031307     -0.007077     -0.000000
C      9.62073     -4.80700      7.50000         0.009525     -0.030651     -0.000000
C      0.66497     10.74545      7.50000        -0.009525      0.030651      0.000000
O      6.65227      3.86124      7.50000         0.785825      0.471330     -0.000000
O      3.63342      2.07721      7.50000        -0.785825     -0.471330      0.000000
O      3.61563      9.76887      7.50000        -0.801097      0.444879      0.000000
O      6.67007     -3.83042      7.50000         0.801097     -0.444879      0.000000
O      0.01779      4.18524      7.50000         0.015271     -0.916210     -0.000000
O     10.26790      1.75321      7.50000        -0.015271      0.916210      0.000000
Pd      5.14285     -2.96922      7.50000        -0.000000     -0.000000      0.000000
Pd      0.00000      5.93845      7.50000        -0.000000     -0.000000      0.000000
Pd      5.14285      2.96922      7.50000        -0.000000      0.000000      0.000000
