152
# total energy = -1003.02793622 eVH     10.35389      5.87395      7.64558        -0.045589      0.192614      0.921383
H     10.62451     15.10445      7.64558        -0.118935     -0.131968      1.082304
H     10.62451      5.87395     13.33282        -0.048095      0.006276     -0.986712
H     10.35389     15.10445     13.33282        -0.075966     -0.190517     -0.880575
H      7.64558     10.35389      5.87395         0.826169      0.273249     -0.186552
H      7.64558     10.62451     15.10445         0.782078      0.407109      0.031311
H     13.33282     10.62451      5.87395        -0.486116      0.010827      0.102172
H     13.33282     10.35389     15.10445        -0.673057     -0.201699      0.045989
H      5.87395      7.64558     10.35389        -0.262920      2.057369      0.275232
H     15.10445      7.64558     10.62451        -0.007164      1.210970     -0.067909
H      5.87395     13.33282     10.62451         0.168738     -0.835658     -0.012430
H     15.10445     13.33282     10.35389         0.107780     -1.162476     -0.301061
H      5.87395     10.35389      7.64558        -0.600106      0.266383      1.234693
H     15.10445     10.62451      7.64558         0.130670      0.669117      1.626887
H      5.87395     10.62451     13.33282        -0.179884      0.462580     -1.193326
H     15.10445     10.35389     13.33282         1.232369      0.024013     -1.131075
H     10.35389      7.64558      5.87395         0.426990      1.361433     -0.057687
H     10.62451      7.64558     15.10445         0.407491      0.882877     -0.044385
H     10.62451     13.33282      5.87395        -0.315703     -0.788543      0.054584
H     10.35389     13.33282     15.10445        -0.119807     -0.457694     -0.155211
H      7.64558      5.87395     10.35389         0.964681     -0.164048     -0.105474
H      7.64558     15.10445     10.62451         0.561082     -0.200326     -0.030095
H     13.33282      5.87395     10.62451        -1.016039      0.039871      0.339695
H     13.33282     15.10445     10.35389        -0.409545     -0.095587     -0.045272
H     12.45634     12.45634     19.01126         0.266778      0.233943     -0.245436
H     19.01126     19.01126     19.01126        -0.262466     -0.255391     -0.231825
H     19.01126     12.45634     12.45634        -0.258244      0.267431      0.232396
H     12.45634     19.01126     12.45634         0.265212     -0.265294      0.226285
C     10.35284      5.61067      6.59456        -0.153235     -0.974609     -0.950461
C     10.62556     15.36773      6.59456         0.055990      0.421313     -0.921743
C     10.62556      5.61067     14.38384        -0.120303     -0.648344      1.321692
C     10.35284     15.36773     14.38384         0.092870      0.315045      0.929869
C      6.59456     10.35284      5.61067        -1.554707      0.176465     -0.920762
C      6.59456     10.62556     15.36773        -1.003954      0.236741      0.750615
C     14.38384     10.62556      5.61067         1.313758      0.146241     -0.906302
C     14.38384     10.35284     15.36773         1.321077      0.053294      0.810802
C      5.61067      6.59456     10.35284        -0.777131     -1.200158      0.042707
C     15.36773      6.59456     10.62556         0.547771     -0.359100      0.037327
C      5.61067     14.38384     10.62556        -0.367982      0.934263      0.013985
C     15.36773     14.38384     10.35284         0.371414      1.425848      0.020884
C      5.61067     10.35284      6.59456        -0.317129     -0.032313     -1.485943
C     15.36773     10.62556      6.59456         0.393714     -0.023318     -1.273393
C      5.61067     10.62556     14.38384        -0.330885     -0.023941      1.087861
C     15.36773     10.35284     14.38384         0.101105     -0.055789      1.759226
C     10.35284      6.59456      5.61067        -0.012395     -1.207154     -0.626288
C     10.62556      6.59456     15.36773        -0.003906     -0.788987      0.595235
C     10.62556     14.38384      5.61067         0.018582      0.700392     -0.513809
C     10.35284     14.38384     15.36773        -0.030003      0.423194      0.374535
C      6.59456      5.61067     10.35284        -0.429782     -1.182865      0.118468
C      6.59456     15.36773     10.62556        -0.674812      0.498714      0.028437
C     14.38384      5.61067     10.62556         0.521352     -0.745940     -0.163410
C     14.38384     15.36773     10.35284         0.370342      0.540154     -0.061776
C     10.40319      3.19606      7.29314        -0.024811      0.319220     -0.989833
C     10.35913      4.25547      6.23373        -0.045776     -0.499351      0.173811
C      0.08601      7.29314      7.29314        -0.023816     -0.666679     -0.329875
C      0.13007      6.23373      6.23373        -0.037659      0.392315      0.435863
C      0.08601      3.19606      3.19606        -0.008664      0.447720      0.503304
C      0.13007      4.25547      4.25547        -0.009784     -0.459628     -0.381839
C     10.40319      7.29314      3.19606        -0.048682     -0.724222      0.244302
C     10.35913      6.23373      4.25547         0.015315      0.267788     -0.639947
C      7.29314     10.40319      3.19606        -0.651977     -0.013253      0.163321
C      6.23373     10.35913      4.25547         0.316134     -0.042049     -0.387183
C      7.29314      0.08601      7.29314        -0.745243     -0.075925     -0.325729
C      6.23373      0.13007      6.23373         0.604293     -0.186009      0.318030
C      3.19606      0.08601      3.19606         0.746842     -0.043847      0.238592
C      4.25547      0.13007      4.25547        -0.492957     -0.262506     -0.394494
C      3.19606     10.40319      7.29314         0.387719      0.003192     -0.159117
C      4.25547     10.35913      6.23373        -0.274300     -0.033739      0.351341
C      3.19606      7.29314     10.40319         0.308934     -0.442482      0.022842
C      4.25547      6.23373     10.35913        -0.885915      0.140668      0.062920
C      7.29314      7.29314      0.08601        -0.422445     -0.374663     -0.023250
C      6.23373      6.23373      0.13007         0.695629      0.085491      0.005584
C      3.19606      3.19606      0.08601         0.775487      0.330034     -0.021491
C      4.25547      4.25547      0.13007        -0.185493     -0.745255     -0.051621
C      7.29314      3.19606     10.40319        -0.442492      0.493562      0.017467
C      6.23373      4.25547     10.35913         0.398209     -0.698150      0.080307
O     10.43466      3.58206      8.50569         0.091822      0.251991      0.801608
O     10.54374     17.39634      8.50569         0.018968     -0.121867      0.375851
O     10.54374      3.58206     12.47271         0.084389      0.158158     -0.518982
O     10.43466     17.39634     12.47271        -0.032878     -0.086840     -0.338331
O      8.50569     10.43466      3.58206         0.675233     -0.076600      0.220193
O      8.50569     10.54374     17.39634         0.745708     -0.034208     -0.234757
O     12.47271     10.54374      3.58206        -0.731275      0.100658      0.262207
O     12.47271     10.43466     17.39634        -0.501647      0.016556     -0.210992
O      3.58206      8.50569     10.43466         0.184562      0.599102     -0.036691
O     17.39634      8.50569     10.54374        -0.150772      0.535469      0.037808
O      3.58206     12.47271     10.54374         0.083338     -0.424235      0.038114
O     17.39634     12.47271     10.43466        -0.158151     -0.583128     -0.034294
O      3.58206     10.43466      8.50569         0.154903     -0.023869      0.320448
O     17.39634     10.54374      8.50569        -0.057452      0.081695      0.346918
O      3.58206     10.54374     12.47271         0.071022      0.050960     -0.305911
O     17.39634     10.43466     12.47271        -0.069995     -0.023597     -0.238655
O     10.43466      8.50569      3.58206        -0.085723      0.700104      0.196852
O     10.54374      8.50569     17.39634        -0.042924      0.670310     -0.197354
O     10.54374     12.47271      3.58206         0.048438     -0.528846      0.117337
O     10.43466     12.47271     17.39634        -0.027668     -0.317698      0.001402
O      8.50569      3.58206     10.43466         0.626473      0.150222     -0.045483
O      8.50569     17.39634     10.54374         0.579744     -0.176748      0.024762
O     12.47271      3.58206     10.54374        -0.741256      0.116126      0.017157
O     12.47271     17.39634     10.43466        -0.546085     -0.134879     -0.033628
O     11.90042     11.90042     19.56718        -0.309189     -0.244212      0.259469
O     19.56718     19.56718     19.56718         0.302323      0.311537      0.250067
O     19.56718     11.90042     11.90042         0.316951     -0.302765     -0.247567
O     11.90042     19.56718     11.90042        -0.318855      0.332249     -0.230640
O      9.45224      1.03696      9.45224        -0.025785      0.101935     -0.097298
O      1.03696      9.45224      9.45224         0.043295     -0.020145     -0.103663
O      1.03696      1.03696      1.03696         0.034395      0.095230      0.092451
O      9.45224      9.45224      1.03696        -0.053235     -0.028776      0.114803
Zr     10.48920      2.52580     10.48920        -0.177740     -0.325791      0.178212
Zr     10.48920     18.45260     10.48920         0.086879      0.086101      0.014408
Zr     10.48920     10.48920      2.52580         0.021082      0.043082     -0.362170
Zr     10.48920     10.48920     18.45260         0.051736     -0.023010      0.281573
Zr      2.52580     10.48920     10.48920        -0.089351     -0.132181      0.001553
Zr     18.45260     10.48920     10.48920         0.098122     -0.001397     -0.013740
Pd     11.96162      8.49693     10.26373        -0.055794     -0.012320     -0.003233
Pd      7.27989      9.85168     10.51519        -0.029682     -0.019909     -0.029367
Pd      7.21598     12.15141     11.84118        -0.069338     -0.009758     -0.004050
Pd     12.03310     13.42328      7.55229        -0.013877     -0.012465     -0.021129
Pd     11.53202      8.16405      7.52219         0.007773      0.013232      0.012984
Pd      8.78627      7.34722      7.15154         0.018995      0.038223     -0.010049
Pd     11.66288     11.11601      6.21176        -0.062559      0.166999      0.009980
Pd     13.85140      9.25315      7.64910        -0.016254      0.005822      0.005635
Pd      9.53659     11.87978      7.59745         0.004377      0.037971      0.011256
Pd      7.04534      7.36348     11.95465         0.082480      0.038566     -0.009810
Pd      7.02247      7.63126      8.91517        -0.055571     -0.007046     -0.112410
Pd      7.50069      9.59113     13.22866        -0.027337     -0.089983      0.020067
Pd     11.34561      5.92321      9.23136         0.035802      0.057786     -0.019477
Pd      9.57798      9.65930      6.01658         0.024762     -0.043194      0.091300
Pd      9.34171     14.16851      8.99214        -0.074173     -0.045816     -0.033045
Pd     11.44363      6.42980     11.82519        -0.009907      0.040532     -0.042365
Pd      9.78061      9.37579      9.00757        -0.107099     -0.092503      0.015604
Pd      9.39173     11.71177     10.27217        -0.099464      0.023836     -0.078586
Pd      9.31557      7.11040     10.36911         0.007215      0.052488     -0.017949
Pd      9.08849      7.32602     13.56434        -0.036729     -0.066926      0.055779
Pd      9.56643      9.31754     11.69215        -0.125321     -0.112408     -0.020057
Pd     11.90281     10.90432      8.81775        -0.022583     -0.017033     -0.093138
Pd      7.19740     12.39288      9.04975        -0.040944     -0.032527      0.056256
Pd      7.63131      9.94883      7.90337         0.052442     -0.007207      0.112557
Pd     13.74369      6.97154      8.84813         0.045886      0.020196     -0.054932
Pd     13.79739      7.77932     12.15475        -0.009634     -0.051178      0.004032
Pd      9.46875     11.64958     13.10472         0.001540     -0.060594      0.068936
Pd     14.15940     12.28185      8.72597        -0.065331      0.032459      0.006626
Pd     13.50447     10.33317     12.78159        -0.166738      0.060026     -0.100500
Pd     14.11828      9.99714     10.23356         0.021509      0.024773      0.021114
Pd     11.54513     11.01776     11.43217         0.153880     -0.100155      0.071904
Pd     11.59651     13.39629     10.13934        -0.012296     -0.000409     -0.115890
Pd     13.76619     12.54276     11.41338        -0.014091     -0.020502      0.032071
Pd     11.71570     13.37026     12.85924         0.004346      0.017186     -0.010255
Pd     11.68188     11.28626     14.49141        -0.042128     -0.006769     -0.036029
Pd     11.50284      8.73765     13.25652         0.040553     -0.034137      0.034044
Pd      9.61149      9.68178     14.96064        -0.023477      0.004882      0.023934
Pd      9.33278     13.96837     11.67795        -0.061334     -0.041070     -0.023813
