152
# total energy = -1022.87885458 eVH     10.35389      5.87395      7.64558         0.477203      0.032264      0.903713
H     10.62451     15.10445      7.64558        -0.050307      0.028511      0.768994
H     10.62451      5.87395     13.33282         0.143702      0.116762     -0.606218
H     10.35389     15.10445     13.33282        -0.272081     -0.075450     -0.572442
H      7.64558     10.35389      5.87395         0.333837     -0.035567      0.191123
H      7.64558     10.62451     15.10445         0.615862     -0.189908     -0.138391
H     13.33282     10.62451      5.87395        -0.845530     -0.304267      0.171115
H     13.33282     10.35389     15.10445        -0.469448     -0.095359     -0.057641
H      5.87395      7.64558     10.35389         0.127530      1.120484     -0.150747
H     15.10445      7.64558     10.62451        -0.168856      0.404909     -0.085668
H      5.87395     13.33282     10.62451         0.143422     -0.408914     -0.071088
H     15.10445     13.33282     10.35389        -0.078169     -0.970069     -0.184659
H      5.87395     10.35389      7.64558         0.130490      0.042143      0.483113
H     15.10445     10.62451      7.64558         0.122478     -0.205473      0.826273
H      5.87395     10.62451     13.33282         0.265014     -0.031217     -0.393819
H     15.10445     10.35389     13.33282        -0.142067      0.011076     -0.632497
H     10.35389      7.64558      5.87395         0.062231      0.845800      0.121194
H     10.62451      7.64558     15.10445         0.028525      0.544889     -0.145638
H     10.62451     13.33282      5.87395         0.059506     -0.605440      0.190742
H     10.35389     13.33282     15.10445        -0.257661     -0.885163     -0.104702
H      7.64558      5.87395     10.35389         0.524223      0.042222     -0.131990
H      7.64558     15.10445     10.62451         0.904612     -0.218516      0.279475
H     13.33282      5.87395     10.62451        -0.436355      0.186114     -0.058534
H     13.33282     15.10445     10.35389        -0.977868     -0.104282      0.232503
H     12.45634     12.45634     19.01126         0.266431      0.257904     -0.224354
H     19.01126     19.01126     19.01126        -0.248135     -0.234718     -0.262347
H     19.01126     12.45634     12.45634        -0.241684      0.270271      0.238919
H     12.45634     19.01126     12.45634         0.211381     -0.282883      0.252648
C     10.35284      5.61067      6.59456        -0.130493     -0.432419     -0.397723
C     10.62556     15.36773      6.59456         0.023394      0.345050     -1.150635
C     10.62556      5.61067     14.38384        -0.027179     -0.218203      0.725344
C     10.35284     15.36773     14.38384         0.182044      0.779550      0.151714
C      6.59456     10.35284      5.61067        -0.420762     -0.039602     -0.183180
C      6.59456     10.62556     15.36773        -0.792807      0.150063      0.352026
C     14.38384     10.62556      5.61067         0.611026      0.278410     -0.374060
C     14.38384     10.35284     15.36773         0.742678     -0.121908      0.432866
C      5.61067      6.59456     10.35284        -0.425257     -0.752888      0.281740
C     15.36773      6.59456     10.62556         0.193770     -0.471937      0.045938
C      5.61067     14.38384     10.62556        -0.249402      0.383849     -0.024883
C     15.36773     14.38384     10.35284         0.407356      0.121832      0.165460
C      5.61067     10.35284      6.59456        -0.306299     -0.013575     -0.884546
C     15.36773     10.62556      6.59456         0.566199     -0.153805     -1.230933
C      5.61067     10.62556     14.38384        -0.457275      0.006817      0.876873
C     15.36773     10.35284     14.38384         0.528053     -0.181205      1.245512
C     10.35284      6.59456      5.61067        -0.040669     -0.909036     -0.673851
C     10.62556      6.59456     15.36773         0.040705     -0.646649      0.294589
C     10.62556     14.38384      5.61067         0.046367      1.245160     -0.678254
C     10.35284     14.38384     15.36773         0.093552      0.587289      0.671221
C      6.59456      5.61067     10.35284        -0.215659     -0.889971      0.126272
C      6.59456     15.36773     10.62556        -1.716045      0.492057      0.053292
C     14.38384      5.61067     10.62556         0.583031     -0.223847     -0.006391
C     14.38384     15.36773     10.35284         0.105949      0.565190     -0.245258
C     10.40319      3.19606      7.29314         0.016222      0.915992     -0.255860
C     10.35913      4.25547      6.23373        -0.052215     -0.369075      0.616841
C      0.08601      7.29314      7.29314        -0.009375     -0.239267     -0.473961
C      0.13007      6.23373      6.23373         0.003045      0.112894      0.207436
C      0.08601      3.19606      3.19606        -0.016747      0.648884      0.180480
C      0.13007      4.25547      4.25547        -0.090299     -0.198702     -0.172292
C     10.40319      7.29314      3.19606        -0.001343     -0.699457      0.530295
C     10.35913      6.23373      4.25547        -0.006553      0.520530     -0.399774
C      7.29314     10.40319      3.19606        -0.344872      0.023144      0.848400
C      6.23373     10.35913      4.25547         0.214228      0.015887     -0.141451
C      7.29314      0.08601      7.29314        -0.312436     -0.046457     -0.271550
C      6.23373      0.13007      6.23373         0.269317     -0.059589      0.298179
C      3.19606      0.08601      3.19606         0.446532     -0.052415      1.286370
C      4.25547      0.13007      4.25547        -0.114466     -0.031266     -0.461884
C      3.19606     10.40319      7.29314         0.712398      0.014642     -0.262622
C      4.25547     10.35913      6.23373        -0.138757      0.035305      0.110181
C      3.19606      7.29314     10.40319         0.605312     -1.266210      0.024411
C      4.25547      6.23373     10.35913        -0.706884      0.849923      0.052167
C      7.29314      7.29314      0.08601        -0.664613     -0.171139     -0.021793
C      6.23373      6.23373      0.13007         0.174075      0.264797     -0.008254
C      3.19606      3.19606      0.08601         0.242406      0.253916     -0.018983
C      4.25547      4.25547      0.13007        -0.053521     -0.036836      0.010726
C      7.29314      3.19606     10.40319        -0.373607      0.795496      0.014856
C      6.23373      4.25547     10.35913         0.887062     -0.153765      0.008778
O     10.43466      3.58206      8.50569        -0.049990      0.030468      0.319712
O     10.54374     17.39634      8.50569        -0.026007     -0.181984      0.604420
O     10.54374      3.58206     12.47271         0.054743      0.061185     -0.321507
O     10.43466     17.39634     12.47271        -0.024232     -0.123440     -0.581936
O      8.50569     10.43466      3.58206         0.383806     -0.023827     -0.010663
O      8.50569     10.54374     17.39634         0.472859      0.053116     -0.142870
O     12.47271     10.54374      3.58206        -0.292616      0.047456     -0.072808
O     12.47271     10.43466     17.39634        -0.857865      0.020628     -0.226234
O      3.58206      8.50569     10.43466         0.042652      0.923907      0.036894
O     17.39634      8.50569     10.54374        -0.037626      0.336064      0.078350
O      3.58206     12.47271     10.54374         0.062589     -0.422578      0.064157
O     17.39634     12.47271     10.43466        -0.171321     -0.778928      0.021123
O      3.58206     10.43466      8.50569        -0.058130     -0.067204      0.221328
O     17.39634     10.54374      8.50569        -0.136090      0.042177      0.459541
O      3.58206     10.54374     12.47271        -0.015629     -0.050358     -0.886390
O     17.39634     10.43466     12.47271        -0.198342      0.040691     -0.759479
O     10.43466      8.50569      3.58206         0.045634      0.687593      0.192267
O     10.54374      8.50569     17.39634         0.054237      0.434049     -0.078533
O     10.54374     12.47271      3.58206        -0.008920     -0.732520      0.227955
O     10.43466     12.47271     17.39634         0.049564     -0.859766     -0.276351
O      8.50569      3.58206     10.43466         0.492183      0.075167     -0.038086
O      8.50569     17.39634     10.54374         0.660820     -0.255324     -0.062618
O     12.47271      3.58206     10.54374        -0.485549      0.162781      0.039792
O     12.47271     17.39634     10.43466        -0.528041     -0.037466     -0.028738
O     11.90042     11.90042     19.56718        -0.304343     -0.312226      0.263127
O     19.56718     19.56718     19.56718         0.287129      0.270935      0.320855
O     19.56718     11.90042     11.90042         0.279791     -0.330369     -0.243946
O     11.90042     19.56718     11.90042        -0.230789      0.290471     -0.241025
O      9.45224      1.03696      9.45224        -0.074552      0.048121     -0.066844
O      1.03696      9.45224      9.45224         0.053107     -0.147162     -0.058995
O      1.03696      1.03696      1.03696         0.040878      0.034520      0.188677
O      9.45224      9.45224      1.03696        -0.040313     -0.092922      0.122219
Zr     10.48920      2.52580     10.48920        -0.008708     -0.074909     -0.023708
Zr     10.48920     18.45260     10.48920         0.064251      0.310558     -0.068255
Zr     10.48920     10.48920      2.52580        -0.098823      0.011899     -0.376747
Zr     10.48920     10.48920     18.45260        -0.140151     -0.155657      0.333996
Zr      2.52580     10.48920     10.48920        -0.353769      0.313171     -0.456880
Zr     18.45260     10.48920     10.48920         0.238659      0.038795     -0.262817
Pd      9.03700     10.26201     13.34057        -0.016773     -0.015621      0.005507
Pd     10.58306      9.72227     10.97143        -0.005714     -0.005191     -0.056729
Pd     13.76674      8.55357     12.68119         0.004932      0.007051     -0.009775
Pd     10.99942     11.07103     15.02930        -0.002375     -0.022772     -0.001457
Pd     12.87358     11.20066     13.04421         0.021926      0.005280      0.015935
Pd     14.97729     10.94186     11.33829         0.006210      0.014926     -0.008756
Pd      6.65809      7.44765     12.33965        -0.006272      0.023252      0.004328
Pd      9.22393      7.27296     10.12330         0.010066      0.011667     -0.038122
Pd      9.27470      7.61390     12.79714         0.005241     -0.016031     -0.020770
Pd     11.70024      7.29545     11.46299         0.007756     -0.002813     -0.014322
Pd     11.39787      7.99604      8.85411         0.033525     -0.007597     -0.014590
Pd      7.26266     11.84091     11.95670         0.003708     -0.004720     -0.020087
Pd      8.92658     14.68345      9.34779         0.039742      0.018917      0.022214
Pd      8.41409     12.66043     14.32574        -0.011058     -0.009275     -0.000334
Pd     13.56516     14.09920      8.53934         0.096261      0.031704     -0.056413
Pd     11.01875     13.35231      8.54368         0.095577      0.044491      0.047879
Pd     14.08307     11.52787      8.92059        -0.000080      0.032562     -0.007146
Pd      8.63207     14.10806     12.10457         0.011133     -0.006845      0.002072
Pd     12.24036     13.74955     14.02722        -0.005371     -0.001413      0.003517
Pd     11.18298     14.42240     11.17611         0.032046     -0.016061      0.054131
Pd     14.05356     13.56601     12.16982        -0.011181      0.013563     -0.004260
Pd     12.31336     12.12610     10.68796        -0.002450     -0.028152      0.011682
Pd     12.66254     12.34086      6.70965         0.015828      0.045254     -0.016812
Pd     13.66098      8.93845      7.91404         0.036950      0.008892     -0.003215
Pd      6.86541      8.47282      8.85746         0.009549      0.008741     -0.006199
Pd      5.52767      9.94939     11.24618         0.009991      0.032306     -0.055797
Pd      9.14951      9.74476      8.29757         0.031960     -0.029024     -0.010497
Pd      8.81445      7.23709      7.46335        -0.021877     -0.012573     -0.033183
Pd      9.53684     12.08697     10.43174         0.032525      0.000385      0.018836
Pd     11.53407     10.71466      8.56200         0.022196      0.014076     -0.035877
Pd     11.24892      9.23897      6.43056         0.038034     -0.021934     -0.012266
Pd      9.90384     11.55081      6.37517         0.030656     -0.029996     -0.006729
Ir     11.35736      9.12173     13.35020        -0.002479      0.018816     -0.026484
Ir     13.07806      9.47934     10.38308         0.010083      0.010530     -0.010819
Ir     10.53598     12.35121     12.72319        -0.010707     -0.020143      0.001397
Ir      7.16363     10.99253      9.50032         0.049040      0.005406     -0.016501
Ir      8.43644     12.47379      8.18932         0.055177      0.017700     -0.015200
Ir      8.06951      9.31031     11.12265        -0.010335      0.013949     -0.007052
