152
# total energy = -1023.23254511 eVH     10.35389      5.87395      7.64558         0.486336      0.081231      0.709037
H     10.62451     15.10445      7.64558        -0.114431     -0.048997      0.811576
H     10.62451      5.87395     13.33282         0.144765      0.126646     -0.633557
H     10.35389     15.10445     13.33282        -0.172893     -0.120345     -0.542955
H      7.64558     10.35389      5.87395         0.311627     -0.022199      0.193144
H      7.64558     10.62451     15.10445         0.648981     -0.222498     -0.139592
H     13.33282     10.62451      5.87395        -0.765619     -0.150133      0.203497
H     13.33282     10.35389     15.10445        -0.432297     -0.103804     -0.064879
H      5.87395      7.64558     10.35389         0.207971      1.101125     -0.274018
H     15.10445      7.64558     10.62451        -0.175131      0.470052     -0.121957
H      5.87395     13.33282     10.62451         0.160426     -0.424099     -0.064450
H     15.10445     13.33282     10.35389        -0.129703     -0.907038      0.015715
H      5.87395     10.35389      7.64558         0.135077      0.094916      0.459850
H     15.10445     10.62451      7.64558         0.099902     -0.022790      1.075888
H      5.87395     10.62451     13.33282         0.196265     -0.033463     -0.388058
H     15.10445     10.35389     13.33282        -0.124365     -0.049126     -0.543838
H     10.35389      7.64558      5.87395         0.126999      0.890016      0.188029
H     10.62451      7.64558     15.10445        -0.010565      0.534803     -0.163171
H     10.62451     13.33282      5.87395        -0.020733     -0.593144      0.223993
H     10.35389     13.33282     15.10445        -0.296379     -0.894218     -0.125642
H      7.64558      5.87395     10.35389         0.441110      0.095707     -0.056312
H      7.64558     15.10445     10.62451         0.852951     -0.278171      0.035947
H     13.33282      5.87395     10.62451        -0.455971      0.185534     -0.065769
H     13.33282     15.10445     10.35389        -0.660414     -0.099107      0.162007
H     12.45634     12.45634     19.01126         0.252784      0.263853     -0.229852
H     19.01126     19.01126     19.01126        -0.251653     -0.232007     -0.261660
H     19.01126     12.45634     12.45634        -0.236247      0.272385      0.239615
H     12.45634     19.01126     12.45634         0.224725     -0.264825      0.249508
C     10.35284      5.61067      6.59456        -0.192882     -0.360749     -0.029208
C     10.62556     15.36773      6.59456         0.068831      0.373972     -1.220801
C     10.62556      5.61067     14.38384        -0.055784     -0.248285      0.800292
C     10.35284     15.36773     14.38384         0.047230      0.892015      0.413617
C      6.59456     10.35284      5.61067        -0.368304     -0.036488     -0.170980
C      6.59456     10.62556     15.36773        -0.833887      0.199682      0.366907
C     14.38384     10.62556      5.61067         0.452612      0.299380     -0.505557
C     14.38384     10.35284     15.36773         0.777865     -0.114487      0.444042
C      5.61067      6.59456     10.35284        -0.314730     -0.654268      0.424590
C     15.36773      6.59456     10.62556         0.170269     -0.516939      0.080334
C      5.61067     14.38384     10.62556        -0.145033      0.388911     -0.022998
C     15.36773     14.38384     10.35284         0.400191     -0.041203     -0.103039
C      5.61067     10.35284      6.59456        -0.258653     -0.019441     -0.781829
C     15.36773     10.62556      6.59456         0.604862     -0.270925     -1.347007
C      5.61067     10.62556     14.38384        -0.342310     -0.000144      0.434167
C     15.36773     10.35284     14.38384         0.489728     -0.166071      1.126081
C     10.35284      6.59456      5.61067        -0.163257     -0.504597     -0.431178
C     10.62556      6.59456     15.36773         0.056000     -0.643745      0.270326
C     10.62556     14.38384      5.61067         0.105696      1.004164     -0.493973
C     10.35284     14.38384     15.36773         0.251041      0.599156      0.544272
C      6.59456      5.61067     10.35284        -0.094829     -0.811894      0.074946
C      6.59456     15.36773     10.62556        -1.524741      0.411230      0.106985
C     14.38384      5.61067     10.62556         0.646337     -0.274561     -0.017089
C     14.38384     15.36773     10.35284        -0.430588      0.678216     -0.309369
C     10.40319      3.19606      7.29314         0.007786      0.837300     -0.292829
C     10.35913      4.25547      6.23373        -0.055417     -0.460595      0.509221
C      0.08601      7.29314      7.29314        -0.007108     -0.260929     -0.504345
C      0.13007      6.23373      6.23373         0.031425      0.145342      0.210742
C      0.08601      3.19606      3.19606        -0.011636      0.650558      0.195838
C      0.13007      4.25547      4.25547        -0.093069     -0.180987     -0.199807
C     10.40319      7.29314      3.19606        -0.007503     -0.652251      0.559965
C     10.35913      6.23373      4.25547        -0.045057      0.273747     -0.612864
C      7.29314     10.40319      3.19606        -0.327947      0.026544      0.935775
C      6.23373     10.35913      4.25547         0.172806      0.029209     -0.125658
C      7.29314      0.08601      7.29314        -0.307111     -0.038872     -0.299099
C      6.23373      0.13007      6.23373         0.331815     -0.051801      0.325330
C      3.19606      0.08601      3.19606         0.530554     -0.034543      0.715054
C      4.25547      0.13007      4.25547        -0.091280     -0.032937     -0.375359
C      3.19606     10.40319      7.29314         0.728511      0.001027     -0.401581
C      4.25547     10.35913      6.23373        -0.155237      0.029543      0.083479
C      3.19606      7.29314     10.40319         0.672648     -1.282468     -0.009712
C      4.25547      6.23373     10.35913        -0.651106      0.918563      0.084218
C      7.29314      7.29314      0.08601        -0.674882     -0.182506     -0.019573
C      6.23373      6.23373      0.13007         0.214405      0.205298      0.015822
C      3.19606      3.19606      0.08601         0.266638      0.292514     -0.021362
C      4.25547      4.25547      0.13007        -0.073228     -0.037691     -0.002416
C      7.29314      3.19606     10.40319        -0.363254      1.009975      0.016407
C      6.23373      4.25547     10.35913         1.060233     -0.031734      0.015289
O     10.43466      3.58206      8.50569        -0.043964      0.047855      0.383409
O     10.54374     17.39634      8.50569        -0.039148     -0.170559      0.583285
O     10.54374      3.58206     12.47271         0.050486      0.060236     -0.310841
O     10.43466     17.39634     12.47271        -0.009850     -0.138979     -0.628590
O      8.50569     10.43466      3.58206         0.353812     -0.028289     -0.029504
O      8.50569     10.54374     17.39634         0.470729      0.045045     -0.145927
O     12.47271     10.54374      3.58206        -0.481043      0.012810      0.080112
O     12.47271     10.43466     17.39634        -0.814403      0.003198     -0.198089
O      3.58206      8.50569     10.43466         0.110139      1.041255      0.016721
O     17.39634      8.50569     10.54374        -0.033370      0.312824      0.074165
O      3.58206     12.47271     10.54374         0.072658     -0.461162      0.051142
O     17.39634     12.47271     10.43466        -0.176073     -0.898357      0.057084
O      3.58206     10.43466      8.50569        -0.065759     -0.069773      0.318251
O     17.39634     10.54374      8.50569        -0.131223      0.041896      0.461720
O      3.58206     10.54374     12.47271         0.088424     -0.025552     -0.643320
O     17.39634     10.43466     12.47271        -0.183145      0.054367     -0.782648
O     10.43466      8.50569      3.58206         0.028577      0.647332      0.156233
O     10.54374      8.50569     17.39634         0.061524      0.444735     -0.084936
O     10.54374     12.47271      3.58206        -0.012402     -0.737171      0.232204
O     10.43466     12.47271     17.39634         0.034331     -0.846721     -0.240334
O      8.50569      3.58206     10.43466         0.441475      0.020277     -0.040226
O      8.50569     17.39634     10.54374         0.687265     -0.263511     -0.061563
O     12.47271      3.58206     10.54374        -0.462118      0.152229      0.042092
O     12.47271     17.39634     10.43466        -0.553898     -0.023094     -0.007239
O     11.90042     11.90042     19.56718        -0.294309     -0.313865      0.255985
O     19.56718     19.56718     19.56718         0.283271      0.263901      0.311445
O     19.56718     11.90042     11.90042         0.260965     -0.322030     -0.242947
O     11.90042     19.56718     11.90042        -0.271631      0.278541     -0.265211
O      9.45224      1.03696      9.45224        -0.082608      0.042251     -0.069670
O      1.03696      9.45224      9.45224         0.015389     -0.168555     -0.097173
O      1.03696      1.03696      1.03696         0.002417      0.069343      0.180706
O      9.45224      9.45224      1.03696        -0.062268     -0.099704      0.108592
Zr     10.48920      2.52580     10.48920         0.001109     -0.095629     -0.053522
Zr     10.48920     18.45260     10.48920         0.128056      0.351455     -0.006242
Zr     10.48920     10.48920      2.52580         0.011242     -0.036310     -0.392410
Zr     10.48920     10.48920     18.45260        -0.158676     -0.061456      0.370707
Zr      2.52580     10.48920     10.48920        -0.329210      0.241321     -0.134218
Zr     18.45260     10.48920     10.48920         0.277322     -0.017017     -0.284021
Pd      9.00266     10.13879     13.31009        -0.043827     -0.024561      0.014954
Pd     10.69726      9.71527     10.86934        -0.017029     -0.028977     -0.074797
Pd     13.73518      8.40402     12.57460        -0.008495      0.014323     -0.001351
Pd     11.01690     10.91925     14.96854        -0.024260     -0.017662      0.014140
Pd     12.90230     11.02717     12.95508         0.020797      0.014374      0.040764
Pd     15.10144     11.10515     11.31407        -0.009898     -0.024958      0.001576
Pd      6.60632      7.69982     12.31528        -0.007792      0.026419      0.011725
Pd      9.31932      7.30304      9.87196        -0.009094     -0.011966     -0.016400
Pd      9.23168      7.48093     12.63255         0.002987     -0.005541     -0.012637
Pd     11.64162      7.16614     11.41877        -0.002712      0.003826     -0.007777
Pd     11.69521      8.00961      8.90677         0.006984     -0.027802     -0.023487
Pd      7.37716     11.78293     11.78698        -0.010421     -0.003982     -0.012009
Pd      9.19246     14.75291      9.43758         0.000115     -0.016826      0.002844
Pd      8.40403     12.55884     14.26215        -0.012508     -0.012531     -0.012815
Pd     14.09169     14.25532      8.31313         0.003588     -0.003827     -0.000417
Pd     11.49738     13.65148      8.72259         0.014438     -0.014526      0.018682
Pd     14.16509     11.69642      8.88656        -0.011196     -0.005760      0.001592
Pd      8.71860     14.04080     12.07203         0.001781     -0.012552      0.003413
Pd     12.27521     13.50563     14.14652        -0.002615      0.014974     -0.006597
Pd     11.34231     14.42944     11.44074         0.000679     -0.013002     -0.004021
Pd     14.07664     13.60576     12.27055         0.003500     -0.014835     -0.004565
Pd     12.42713     12.17431     10.71961        -0.013319     -0.041801      0.016345
Pd     12.75367     12.52905      6.67665        -0.006278     -0.000324      0.001896
Pd     13.93211      9.00445      7.99262         0.002267     -0.009980     -0.018115
Pd      6.94197      8.50443      8.76682        -0.000367     -0.013527     -0.013988
Pd      5.62535     10.10532     10.73000        -0.001681     -0.006169     -0.044191
Pd      9.39775      9.48066      8.12439        -0.008088     -0.024791     -0.054770
Pd      8.57625      7.04455      7.24087        -0.013045     -0.025185     -0.008067
Pd      9.76205     12.13505     10.35764         0.002957     -0.017852      0.032281
Pd     11.63929     10.82027      8.48874        -0.007939     -0.000982     -0.019141
Pd     11.58148      9.09610      6.46711         0.010106     -0.002450     -0.009950
Pd     10.09080     11.34641      6.30536         0.000643     -0.003750     -0.021630
Ir     11.30319      8.99677     13.23474        -0.017980      0.031359     -0.039766
Ir     13.22263      9.62655     10.38470        -0.004922     -0.024600     -0.024184
Ir     10.55532     12.23655     12.73806        -0.012396     -0.019848     -0.006049
Ir      7.59277     11.01059      9.26126         0.031945      0.002228     -0.028746
Ir      8.85443     12.60233      8.07333         0.035139     -0.030537      0.002991
Ir      8.19851      9.31519     11.00958        -0.008324     -0.005081     -0.011115
