152
# total energy = -1110.35139720 eVH     10.35389      5.87395      7.64558        -0.337491     -0.168583      1.017007
H     10.62451     15.10445      7.64558         0.387989      0.093320      0.943762
H     10.62451      5.87395     13.33282        -0.298354     -0.726948     -1.426660
H     10.35389     15.10445     13.33282        -0.646006      0.359234     -0.317639
H      7.64558     10.35389      5.87395         0.547440     -0.545714     -0.079966
H      7.64558     10.62451     15.10445         0.348453     -0.242556      0.037100
H     13.33282     10.62451      5.87395        -0.511761      0.603589     -0.008632
H     13.33282     10.35389     15.10445        -0.536114      0.421394      0.164595
H      5.87395      7.64558     10.35389         0.137120      0.478769      0.034127
H     15.10445      7.64558     10.62451         0.430717      0.814258      0.243588
H      5.87395     13.33282     10.62451        -0.233103     -0.430059      0.365481
H     15.10445     13.33282     10.35389         0.031214     -0.312779     -0.392551
H      5.87395     10.35389      7.64558        -0.071230     -0.346583      1.450099
H     15.10445     10.62451      7.64558         0.194087      0.386790      1.238339
H      5.87395     10.62451     13.33282        -0.131151     -0.328954     -1.105124
H     15.10445     10.35389     13.33282         0.530508      0.875796     -1.519573
H     10.35389      7.64558      5.87395        -0.525043      0.493075     -0.204485
H     10.62451      7.64558     15.10445        -0.132949      0.567464      0.205300
H     10.62451     13.33282      5.87395         0.918416     -1.418203     -0.336249
H     10.35389     13.33282     15.10445         0.297467     -0.541782     -0.067348
H      7.64558      5.87395     10.35389         0.727802      0.172945     -0.135140
H      7.64558     15.10445     10.62451         1.965257      0.836548      0.173987
H     13.33282      5.87395     10.62451        -2.696744     -1.019715     -0.399879
H     13.33282     15.10445     10.35389        -0.867059     -0.039132     -0.255339
H     12.45634     12.45634     19.01126         0.271684      0.257996     -0.227551
H     19.01126     19.01126     19.01126        -0.266839     -0.254333     -0.237847
H     19.01126     12.45634     12.45634        -0.282825      0.281470      0.186882
H     12.45634     19.01126     12.45634         0.256082     -0.251948      0.235811
C     10.35284      5.61067      6.59456         0.104508     -0.494479     -1.263280
C     10.62556     15.36773      6.59456         0.164536      0.773148     -0.868404
C     10.62556      5.61067     14.38384         0.167212     -0.322080      1.828221
C     10.35284     15.36773     14.38384         0.126092      0.406220      1.812857
C      6.59456     10.35284      5.61067        -1.113925     -0.111022     -0.839910
C      6.59456     10.62556     15.36773        -0.670378     -0.109292      0.720307
C     14.38384     10.62556      5.61067         0.894407     -0.117417     -0.997584
C     14.38384     10.35284     15.36773         1.209861      0.164590      1.107637
C      5.61067      6.59456     10.35284        -0.697780     -0.776707     -0.155565
C     15.36773      6.59456     10.62556         1.937018     -0.178696     -0.174086
C      5.61067     14.38384     10.62556        -1.571102     -0.004861     -0.107153
C     15.36773     14.38384     10.35284         0.486325      0.041665      0.037083
C      5.61067     10.35284      6.59456        -0.268337      0.212736     -1.375052
C     15.36773     10.62556      6.59456         0.269068     -0.183078     -0.997030
C      5.61067     10.62556     14.38384        -0.287431      0.365744      1.401924
C     15.36773     10.35284     14.38384         0.078766     -0.429261      1.904769
C     10.35284      6.59456      5.61067        -0.208701     -0.942058     -0.699720
C     10.62556      6.59456     15.36773        -0.092890     -0.830443      1.037914
C     10.62556     14.38384      5.61067        -0.480915      2.065021     -0.783906
C     10.35284     14.38384     15.36773        -0.301798      1.495228      0.458509
C      6.59456      5.61067     10.35284        -0.957311     -0.412286      0.073140
C      6.59456     15.36773     10.62556        -1.361173      0.327892     -0.338201
C     14.38384      5.61067     10.62556         1.315348     -1.088274      0.132159
C     14.38384     15.36773     10.35284         0.391312      0.317095      0.052155
C     10.40319      3.19606      7.29314         0.003435      0.313510     -0.095437
C     10.35913      4.25547      6.23373         0.135432     -0.495053      0.036852
C      0.08601      7.29314      7.29314        -0.054855     -0.312378     -0.434001
C      0.13007      6.23373      6.23373        -0.128607      0.731014      0.051181
C      0.08601      3.19606      3.19606        -0.111963      1.623988      0.174929
C      0.13007      4.25547      4.25547        -0.090352     -0.412706     -1.257082
C     10.40319      7.29314      3.19606         0.016795     -0.419056      0.133842
C     10.35913      6.23373      4.25547         0.259297      0.075677     -0.476439
C      7.29314     10.40319      3.19606        -1.668427      0.004277      0.328376
C      6.23373     10.35913      4.25547         0.655060      0.079917     -0.615439
C      7.29314      0.08601      7.29314        -0.395725     -0.007994     -0.290759
C      6.23373      0.13007      6.23373         0.605560     -0.052132      0.277601
C      3.19606      0.08601      3.19606         0.662237     -0.014605      0.191011
C      4.25547      0.13007      4.25547        -0.374301     -0.056718     -0.473975
C      3.19606     10.40319      7.29314         0.386803      0.018125     -0.323000
C      4.25547     10.35913      6.23373        -0.733856      0.055970      0.381300
C      3.19606      7.29314     10.40319         0.310724     -0.222068     -0.005663
C      4.25547      6.23373     10.35913         0.058157      0.648276      0.095137
C      7.29314      7.29314      0.08601        -0.721697     -0.591130     -0.013806
C      6.23373      6.23373      0.13007         0.776391      1.160589     -0.078385
C      3.19606      3.19606      0.08601         0.802680      0.482126      0.015133
C      4.25547      4.25547      0.13007        -0.337145     -1.689857     -0.111593
C      7.29314      3.19606     10.40319        -0.334398      0.280417     -0.003236
C      6.23373      4.25547     10.35913         0.525665     -0.042050      0.227830
O     10.43466      3.58206      8.50569        -0.046912      0.179665      0.257288
O     10.54374     17.39634      8.50569         0.040771     -0.230834      0.485520
O     10.54374      3.58206     12.47271         0.086649     -0.055907     -0.044321
O     10.43466     17.39634     12.47271        -0.022837     -0.139738     -0.283642
O      8.50569     10.43466      3.58206         0.988140      0.180897      0.391700
O      8.50569     10.54374     17.39634         0.562783      0.083371     -0.226181
O     12.47271     10.54374      3.58206        -0.429664     -0.037355      0.189334
O     12.47271     10.43466     17.39634        -0.530361     -0.071321     -0.202311
O      3.58206      8.50569     10.43466         0.176998      0.444392     -0.031552
O     17.39634      8.50569     10.54374        -0.226721      0.716191      0.040977
O      3.58206     12.47271     10.54374         0.158156     -0.660363      0.023523
O     17.39634     12.47271     10.43466        -0.185479     -0.486396     -0.013761
O      3.58206     10.43466      8.50569         0.219611     -0.058437      0.399850
O     17.39634     10.54374      8.50569        -0.168251      0.036808      0.408294
O      3.58206     10.54374     12.47271         0.142103      0.020802     -0.310596
O     17.39634     10.43466     12.47271         0.066768     -0.050640     -0.089033
O     10.43466      8.50569      3.58206        -0.003584      0.274729      0.175790
O     10.54374      8.50569     17.39634         0.071317      0.441712     -0.184573
O     10.54374     12.47271      3.58206        -0.223246     -0.967342      0.347270
O     10.43466     12.47271     17.39634        -0.085608     -0.448784     -0.244341
O      8.50569      3.58206     10.43466         0.500464      0.194879     -0.013905
O      8.50569     17.39634     10.54374         0.655435     -0.190837      0.023486
O     12.47271      3.58206     10.54374        -0.732598      0.277167      0.036756
O     12.47271     17.39634     10.43466        -0.446941     -0.197262     -0.044657
O     11.90042     11.90042     19.56718        -0.344589     -0.307373      0.258127
O     19.56718     19.56718     19.56718         0.326258      0.310461      0.280651
O     19.56718     11.90042     11.90042         0.278788     -0.279001     -0.141209
O     11.90042     19.56718     11.90042        -0.307820      0.289152     -0.234188
O      9.45224      1.03696      9.45224        -0.056187      0.070200     -0.049664
O      1.03696      9.45224      9.45224         0.034841     -0.071977     -0.074428
O      1.03696      1.03696      1.03696         0.056898      0.137703      0.105665
O      9.45224      9.45224      1.03696        -0.130130     -0.088259      0.105177
Zr     10.48920      2.52580     10.48920         0.138945     -0.161509     -0.160219
Zr     10.48920     18.45260     10.48920        -0.089652      0.178696     -0.038147
Zr     10.48920     10.48920      2.52580         0.327382     -0.312145     -0.198030
Zr     10.48920     10.48920     18.45260         0.000475     -0.082080      0.213116
Zr      2.52580     10.48920     10.48920        -0.063335      0.158999     -0.049086
Zr     18.45260     10.48920     10.48920         0.133480     -0.119654     -0.246074
Ir     12.06298     12.49442     10.46479         0.015816     -0.021382     -0.002451
Ir     11.12575      7.41740     10.34297         0.067154     -0.005377     -0.015163
Ir      8.77629      7.41379     11.60330         0.032090     -0.041304     -0.017236
Ir      7.48219     11.67282      7.64651         0.011245     -0.009033      0.010357
Ir     11.59728     12.09892      7.12606        -0.005069      0.001195      0.002945
Ir     13.72271      8.96386      7.57497        -0.005736      0.012064      0.011115
Ir     12.51462     13.95299      8.42137        -0.016090     -0.010814      0.009149
Ir      9.71470     11.26737      5.57180        -0.004115      0.015929      0.010795
Ir      9.08956     13.47192      7.07215        -0.011504      0.011168      0.015848
Ir      9.29787      9.66377      7.54527        -0.017708     -0.007093     -0.013973
Ir     13.23702      7.04932     11.94333        -0.001140     -0.000443      0.033287
Ir     13.50610      7.01687      9.12559         0.042359      0.023738     -0.012025
Ir     10.99572      7.61398     12.87904         0.041408     -0.004170     -0.002917
Ir     13.61911     11.55376      8.76051        -0.009028     -0.002247     -0.002496
Ir     11.50798      9.66995      6.24286        -0.009559     -0.000111     -0.005779
Ir      7.13520      9.22750      8.95476        -0.005293     -0.028863     -0.010879
Ir     14.05290     11.41047     11.67158        -0.001371      0.010213     -0.012456
Ir     11.64567      9.88407      8.91838         0.038244     -0.019558     -0.027568
Ir      9.41666      9.54810     10.26569         0.004209     -0.016624     -0.020614
Ir     13.84839      9.38232     10.19746        -0.016776      0.020404     -0.013719
Ir     13.79739      9.14743     12.93139        -0.015071     -0.005440     -0.025063
Ir     11.67570      9.76570     11.58727         0.016910      0.007599     -0.012023
Ir      9.91490     11.77393      8.98453        -0.008701      0.009333     -0.014220
Ir      8.99382      7.45064      8.87482         0.051787     -0.017546     -0.030002
Ir     11.45347      7.61489      7.81536         0.073744     -0.024950     -0.022041
Ir      9.23345      9.52635     13.02814         0.017724     -0.024983      0.000686
Ir      7.53746     13.94297      8.98373        -0.000816     -0.011673      0.004086
Ir     10.92437     14.14602     11.93893        -0.022734     -0.012920      0.024961
Ir     10.13299     14.19134      9.51865         0.000893     -0.017423     -0.004678
Ir      9.80643     11.72543     11.72948         0.007142     -0.011571     -0.002209
Ir      7.59224     11.62760     10.20625        -0.013843     -0.027476      0.007692
Ir      8.39025     13.79168     11.58302        -0.018331     -0.012570      0.009111
Ir      7.53048     11.63875     12.83026        -0.006795     -0.029686      0.009611
Ir      9.75995     11.65612     14.34634         0.008418     -0.000686      0.004743
Ir     13.51445     13.87311     12.19685        -0.006291      0.001263     -0.005843
Ir     11.99492     12.07298     13.09345         0.011617     -0.029288     -0.021427
Ir     11.56205      9.83492     14.21947        -0.005027     -0.005604     -0.004411
Ir      7.12622      9.44536     11.51237         0.000703     -0.035566     -0.001050
