152
# total energy = -1061.31375174 eVH     10.35389      5.87395      7.64558        -0.200110      0.153473      1.030648
H     10.62451     15.10445      7.64558         0.198992     -0.070944      0.833439
H     10.62451      5.87395     13.33282        -0.172175      0.082269     -0.532245
H     10.35389     15.10445     13.33282         0.046829     -0.252256     -0.453592
H      7.64558     10.35389      5.87395         0.803738      0.083487      0.208737
H      7.64558     10.62451     15.10445         0.186776      0.000255     -0.065262
H     13.33282     10.62451      5.87395        -0.648206     -0.046330      0.171733
H     13.33282     10.35389     15.10445        -0.339756     -0.091892     -0.048655
H      5.87395      7.64558     10.35389         0.132278      0.362707     -0.028695
H     15.10445      7.64558     10.62451        -0.132256      0.645663      0.286417
H      5.87395     13.33282     10.62451         0.136017     -0.551148     -0.001090
H     15.10445     13.33282     10.35389        -0.235549     -0.477723      0.126188
H      5.87395     10.35389      7.64558         0.215016      0.187548      0.383651
H     15.10445     10.62451      7.64558        -0.180193     -0.121523      0.418216
H      5.87395     10.62451     13.33282         0.031920      0.137166     -0.733580
H     15.10445     10.35389     13.33282         0.099435     -0.308206     -0.750609
H     10.35389      7.64558      5.87395        -0.088039      0.447042      0.267394
H     10.62451      7.64558     15.10445         0.407870      0.724674     -0.102066
H     10.62451     13.33282      5.87395         0.279417     -0.592440      0.120963
H     10.35389     13.33282     15.10445         0.155832     -0.618753     -0.087108
H      7.64558      5.87395     10.35389         0.439957      0.156293     -0.034243
H      7.64558     15.10445     10.62451         0.458779     -0.169770      0.325746
H     13.33282      5.87395     10.62451        -0.354639      0.143052     -0.030780
H     13.33282     15.10445     10.35389        -0.545485     -0.239808      0.172223
H     12.45634     12.45634     19.01126         0.242176      0.264467     -0.238796
H     19.01126     19.01126     19.01126        -0.254220     -0.265639     -0.229196
H     19.01126     12.45634     12.45634        -0.231893      0.266750      0.243681
H     12.45634     19.01126     12.45634         0.290676     -0.210991      0.243877
C     10.35284      5.61067      6.59456         0.339863     -0.313992     -0.959493
C     10.62556     15.36773      6.59456        -0.144622      0.705288     -0.410192
C     10.62556      5.61067     14.38384         0.275566     -0.343491      0.546266
C     10.35284     15.36773     14.38384        -0.128672      0.284477      0.465482
C      6.59456     10.35284      5.61067        -0.742930     -0.152937     -0.213740
C      6.59456     10.62556     15.36773        -0.553900      0.065529      0.345236
C     14.38384     10.62556      5.61067         0.996285      0.010118     -0.507879
C     14.38384     10.35284     15.36773         0.284537     -0.087998      0.377171
C      5.61067      6.59456     10.35284        -0.372645     -0.488281      0.030065
C     15.36773      6.59456     10.62556         0.246332     -0.727745     -0.176818
C      5.61067     14.38384     10.62556        -0.194373      0.613992     -0.237791
C     15.36773     14.38384     10.35284         0.372417      0.851435     -0.137528
C      5.61067     10.35284      6.59456        -0.236388     -0.132766     -0.252073
C     15.36773     10.62556      6.59456         0.212988      0.121752     -0.359666
C      5.61067     10.62556     14.38384        -0.376394     -0.022454      1.249866
C     15.36773     10.35284     14.38384         0.253124     -0.013231      1.010842
C     10.35284      6.59456      5.61067         0.022649     -0.351408     -0.456024
C     10.62556      6.59456     15.36773        -0.043951     -0.888319      0.287358
C     10.62556     14.38384      5.61067        -0.378004     -0.030639     -0.791601
C     10.35284     14.38384     15.36773        -0.230490      0.881792      0.249199
C      6.59456      5.61067     10.35284        -0.441581     -0.305925      0.153671
C      6.59456     15.36773     10.62556        -0.544625      0.522926      0.035418
C     14.38384      5.61067     10.62556         0.387948     -0.317795      0.081581
C     14.38384     15.36773     10.35284         0.819304      0.310751     -0.067233
C     10.40319      3.19606      7.29314        -0.002244      0.664716     -0.339923
C     10.35913      4.25547      6.23373         0.004289     -0.469002      0.393213
C      0.08601      7.29314      7.29314        -0.027797     -0.763136     -0.465342
C      0.13007      6.23373      6.23373        -0.146332      0.857474      0.119772
C      0.08601      3.19606      3.19606        -0.014466      0.364765      0.383240
C      0.13007      4.25547      4.25547         0.071015     -0.157968     -0.658456
C     10.40319      7.29314      3.19606        -0.047559     -1.112821      0.928386
C     10.35913      6.23373      4.25547         0.017226      0.334472     -0.173200
C      7.29314     10.40319      3.19606        -1.011084     -0.065750      0.359897
C      6.23373     10.35913      4.25547         0.287072      0.033318     -0.593884
C      7.29314      0.08601      7.29314        -0.964522     -0.000245     -0.388976
C      6.23373      0.13007      6.23373         0.165740      0.009487      0.106797
C      3.19606      0.08601      3.19606         0.335826     -0.003618      0.355656
C      4.25547      0.13007      4.25547        -0.268325     -0.044879     -0.165805
C      3.19606     10.40319      7.29314         0.484165     -0.047413     -1.111548
C      4.25547     10.35913      6.23373        -0.310543     -0.044710      0.140107
C      3.19606      7.29314     10.40319         0.793594     -0.508445      0.013759
C      4.25547      6.23373     10.35913        -0.121050      0.160520     -0.000531
C      7.29314      7.29314      0.08601        -0.407235     -0.270840     -0.005771
C      6.23373      6.23373      0.13007         0.262394      0.068181     -0.143055
C      3.19606      3.19606      0.08601         0.339572      0.673641     -0.008586
C      4.25547      4.25547      0.13007        -0.343715     -0.240704      0.054352
C      7.29314      3.19606     10.40319        -0.221861      0.552839      0.020463
C      6.23373      4.25547     10.35913         0.076528     -0.243391     -0.004005
O     10.43466      3.58206      8.50569        -0.016711      0.104790      0.332192
O     10.54374     17.39634      8.50569         0.066885      0.013556      0.341506
O     10.54374      3.58206     12.47271         0.044165      0.199130     -0.575360
O     10.43466     17.39634     12.47271         0.035902      0.000752     -0.481549
O      8.50569     10.43466      3.58206         0.707967     -0.075101      0.083077
O      8.50569     10.54374     17.39634         0.925190      0.038995     -0.162412
O     12.47271     10.54374      3.58206        -0.354147      0.046124      0.063934
O     12.47271     10.43466     17.39634        -0.337177     -0.019220      0.070713
O      3.58206      8.50569     10.43466        -0.013177      0.416702     -0.083370
O     17.39634      8.50569     10.54374        -0.120991      0.428077      0.030839
O      3.58206     12.47271     10.54374         0.124575     -0.686848     -0.009781
O     17.39634     12.47271     10.43466        -0.241109     -0.657311     -0.012283
O      3.58206     10.43466      8.50569         0.138012     -0.044852      0.847759
O     17.39634     10.54374      8.50569         0.043169      0.043559      0.276840
O      3.58206     10.54374     12.47271         0.069386      0.019231     -0.436353
O     17.39634     10.43466     12.47271        -0.028283      0.014460     -0.325464
O     10.43466      8.50569      3.58206        -0.068921      0.571051     -0.101873
O     10.54374      8.50569     17.39634         0.028028      0.808508     -0.162580
O     10.54374     12.47271      3.58206         0.055603     -0.373770      0.091960
O     10.43466     12.47271     17.39634        -0.064204     -0.697820     -0.224279
O      8.50569      3.58206     10.43466         0.355585      0.068174     -0.054374
O      8.50569     17.39634     10.54374         0.508529     -0.130026      0.020501
O     12.47271      3.58206     10.54374        -0.414455      0.102054      0.019914
O     12.47271     17.39634     10.43466        -0.641180     -0.086229      0.059502
O     11.90042     11.90042     19.56718        -0.250215     -0.276990      0.221429
O     19.56718     19.56718     19.56718         0.289209      0.304060      0.251840
O     19.56718     11.90042     11.90042         0.240023     -0.299534     -0.291637
O     11.90042     19.56718     11.90042        -0.290473      0.176169     -0.251030
O      9.45224      1.03696      9.45224        -0.116762      0.118584     -0.084769
O      1.03696      9.45224      9.45224         0.147678     -0.132386     -0.150960
O      1.03696      1.03696      1.03696         0.137235      0.190284     -0.011573
O      9.45224      9.45224      1.03696        -0.196162     -0.173589      0.051464
Zr     10.48920      2.52580     10.48920         0.006844     -0.245784      0.209263
Zr     10.48920     18.45260     10.48920        -0.225753      0.247220     -0.297192
Zr     10.48920     10.48920      2.52580         0.246297      0.483949     -0.204084
Zr     10.48920     10.48920     18.45260         0.035281     -0.100954      0.488962
Zr      2.52580     10.48920     10.48920        -0.528512      0.067186      0.378123
Zr     18.45260     10.48920     10.48920         0.248815     -0.149668      0.034651
Pd      9.08226     14.46510      9.20136        -0.005584      0.041723     -0.013409
Pd      8.32617     13.24303     13.73597         0.019765     -0.017629     -0.005350
Pd     11.92472     14.29396      8.83049         0.019624     -0.058717     -0.009545
Pd     12.27893     12.76897     10.92752        -0.011006      0.071546     -0.061946
Pd     11.87267      7.10221     12.12216         0.012140      0.046159     -0.015606
Pd     10.95588     15.27911     11.12701         0.029195     -0.000148     -0.050566
Pd      9.58837     13.02841     11.39418         0.028350      0.073679     -0.010846
Pd     13.91646     12.59897      8.31260         0.039988     -0.044520     -0.091838
Pd     11.73710     11.72515      6.81484        -0.073673     -0.069919     -0.039608
Pd      7.52443      8.47315      7.31612         0.018700     -0.011188     -0.033624
Pd      8.80692     11.95119      6.86794        -0.091282      0.022717      0.068843
Pd      9.83691      9.78920      8.06160        -0.009339      0.007965      0.015206
Pd      8.50409     14.59922      6.54906        -0.045861     -0.015262     -0.012920
Pd     12.18097      8.99197      6.96725         0.005405      0.031626      0.005130
Pd     10.10176      9.93652      5.44756         0.010434      0.036661     -0.034024
Pd      6.92012      9.15824     12.24141         0.012209      0.003098      0.017214
Pd     12.37574      6.47012      7.88789        -0.025461      0.006775     -0.075991
Pd      5.63187     10.54706      9.99933        -0.052529      0.023457      0.024440
Pd      7.68032      6.66985     12.97014        -0.015817      0.013573     -0.057818
Ir     11.31366      9.60110     12.98189        -0.063866     -0.018340      0.043711
Ir     13.10426      9.25424     11.26142         0.096949     -0.026282     -0.197100
Ir      9.18138      8.52114     13.90615        -0.034424     -0.134034      0.061662
Ir     10.24414     10.51875     15.15836         0.052228     -0.044890     -0.018324
Ir      7.06988     11.81027     11.77980         0.043411      0.038169      0.066885
Ir     14.49534     11.12844     10.45350        -0.012143     -0.057985     -0.034700
Ir     12.36079     10.57684      9.16487         0.125679     -0.133048      0.081882
Ir      8.92143     10.82121     12.93530        -0.106512      0.085053     -0.017914
Ir     10.04390     10.24270     10.71027         0.036357      0.053515     -0.086394
Ir     13.32354     11.29454     12.71284         0.026170     -0.049393     -0.037978
Ir     11.10011     12.09780     13.36375        -0.070148      0.005807      0.052405
Ir      8.01611     11.61868      9.48042         0.020156      0.133664     -0.064380
Ir     11.34760      8.13203      9.64490         0.073429      0.003897     -0.068612
Ir      6.94741     13.31504      8.17857         0.057658      0.017396      0.031100
Ir      9.17013      7.21167      8.95121        -0.013062      0.021882     -0.042801
Ir      7.83060      9.12011      9.81427         0.007420     -0.034728     -0.032766
Ir     10.43981     12.24328      8.98303        -0.111102      0.035135      0.073755
Ir      9.39448      7.85978     11.42390        -0.027015     -0.021528     -0.006485
Ir     13.80230      8.40175      8.96817        -0.028901      0.076586      0.049090
