152
# total energy = -1005.48294766 eVH     10.35389      5.87395      7.64558         0.162993      0.101090      0.578280
H     10.62451     15.10445      7.64558        -0.124798     -0.145237      0.508074
H     10.62451      5.87395     13.33282         0.567770      0.080105     -0.855661
H     10.35389     15.10445     13.33282         0.021567     -0.155737     -0.396204
H      7.64558     10.35389      5.87395         0.355317      0.039316      0.164768
H      7.64558     10.62451     15.10445         0.904276      0.549074      0.014618
H     13.33282     10.62451      5.87395        -0.435020      0.355874      0.108964
H     13.33282     10.35389     15.10445        -0.845097     -0.071914      0.002110
H      5.87395      7.64558     10.35389         0.324649      1.230070      0.035108
H     15.10445      7.64558     10.62451        -0.108210      0.490504      0.299089
H      5.87395     13.33282     10.62451         0.181592     -0.606753      0.054801
H     15.10445     13.33282     10.35389        -0.082926     -0.952061     -0.201404
H      5.87395     10.35389      7.64558         0.208328      0.054259      0.440443
H     15.10445     10.62451      7.64558        -0.142447      0.522235      0.773978
H      5.87395     10.62451     13.33282         0.029830      0.449948     -1.070382
H     15.10445     10.35389     13.33282        -0.076182     -0.031968     -0.638767
H     10.35389      7.64558      5.87395         0.318822      1.186129      0.067694
H     10.62451      7.64558     15.10445         0.669590      0.688388     -0.219998
H     10.62451     13.33282      5.87395        -0.397146     -0.816536      0.273730
H     10.35389     13.33282     15.10445        -0.105820     -0.472441     -0.290790
H      7.64558      5.87395     10.35389         0.819810      0.058006     -0.199330
H      7.64558     15.10445     10.62451         0.801087     -0.178434      0.033994
H     13.33282      5.87395     10.62451        -0.708776      0.163564      0.509309
H     13.33282     15.10445     10.35389        -0.378189     -0.120163     -0.090937
H     12.45634     12.45634     19.01126         0.246286      0.272408     -0.232620
H     19.01126     19.01126     19.01126        -0.276138     -0.250208     -0.237714
H     19.01126     12.45634     12.45634        -0.278547      0.262511      0.219165
H     12.45634     19.01126     12.45634         0.236263     -0.262122      0.274156
C     10.35284      5.61067      6.59456        -0.318632     -0.767154     -0.130576
C     10.62556     15.36773      6.59456         0.056946      0.318753     -0.275928
C     10.62556      5.61067     14.38384        -0.147886     -0.508846      0.341712
C     10.35284     15.36773     14.38384         0.018827      0.185499      0.343833
C      6.59456     10.35284      5.61067        -0.397251      0.011277     -0.245223
C      6.59456     10.62556     15.36773        -0.684990      0.102661      0.656147
C     14.38384     10.62556      5.61067        -0.277444     -0.457787     -0.681516
C     14.38384     10.35284     15.36773         1.043434     -0.088373      0.177983
C      5.61067      6.59456     10.35284        -0.744938     -0.280868     -0.335020
C     15.36773      6.59456     10.62556         0.528107      0.023913     -0.369726
C      5.61067     14.38384     10.62556        -0.213974      0.639848     -0.018224
C     15.36773     14.38384     10.35284         0.268073      0.955146      0.025827
C      5.61067     10.35284      6.59456        -0.301354      0.010477     -0.783525
C     15.36773     10.62556      6.59456         0.498920     -0.256447      0.214654
C      5.61067     10.62556     14.38384        -0.706605      0.001838      0.607799
C     15.36773     10.35284     14.38384         0.425837     -0.032426      0.992241
C     10.35284      6.59456      5.61067        -0.124637     -0.776129     -0.568538
C     10.62556      6.59456     15.36773        -0.052309     -0.486436      0.575795
C     10.62556     14.38384      5.61067         0.194374      1.179435     -0.347168
C     10.35284     14.38384     15.36773        -0.002963      0.845809      0.386223
C      6.59456      5.61067     10.35284         0.152602     -1.073930      0.286986
C      6.59456     15.36773     10.62556        -0.976843      0.230924      0.079201
C     14.38384      5.61067     10.62556         0.290841     -0.566542     -0.362822
C     14.38384     15.36773     10.35284         0.143897      0.358079     -0.077072
C     10.40319      3.19606      7.29314         0.003115      0.853408     -0.447735
C     10.35913      4.25547      6.23373         0.062275     -0.545965      0.111394
C      0.08601      7.29314      7.29314        -0.040804     -0.852590     -0.233614
C      0.13007      6.23373      6.23373        -0.047164      0.222280      0.437345
C      0.08601      3.19606      3.19606         0.021200      1.410163      0.263885
C      0.13007      4.25547      4.25547         0.009999     -0.594889     -0.282580
C     10.40319      7.29314      3.19606         0.001730     -0.334460      0.265593
C     10.35913      6.23373      4.25547         0.032234      0.022079     -0.734270
C      7.29314     10.40319      3.19606        -0.264458      0.017680      0.529200
C      6.23373     10.35913      4.25547         0.139737      0.042375     -0.058297
C      7.29314      0.08601      7.29314        -0.861764     -0.076601     -0.308145
C      6.23373      0.13007      6.23373         0.821517     -0.180296      0.414452
C      3.19606      0.08601      3.19606         0.901616     -0.028083      0.566428
C      4.25547      0.13007      4.25547        -0.531343     -0.100771     -0.658827
C      3.19606     10.40319      7.29314         0.544880     -0.010915     -0.768674
C      4.25547     10.35913      6.23373        -0.260201      0.064425      0.216483
C      3.19606      7.29314     10.40319         0.303163     -1.326473      0.022585
C      4.25547      6.23373     10.35913        -1.069723      0.025650      0.118175
C      7.29314      7.29314      0.08601        -0.444198     -0.431427     -0.013006
C      6.23373      6.23373      0.13007         0.557624      0.234098      0.018801
C      3.19606      3.19606      0.08601         0.448418      0.344527     -0.033323
C      4.25547      4.25547      0.13007        -0.131500     -0.573552     -0.046753
C      7.29314      3.19606     10.40319        -0.397766      0.454345      0.055561
C      6.23373      4.25547     10.35913         0.266115     -0.747453      0.140492
O     10.43466      3.58206      8.50569        -0.014962      0.052773      0.447656
O     10.54374     17.39634      8.50569         0.065839     -0.071442      0.332425
O     10.54374      3.58206     12.47271         0.025437     -0.118570     -0.140944
O     10.43466     17.39634     12.47271        -0.027854     -0.166068     -0.520216
O      8.50569     10.43466      3.58206         0.283604     -0.021220      0.013334
O      8.50569     10.54374     17.39634         0.800712     -0.047796     -0.177410
O     12.47271     10.54374      3.58206        -0.796810      0.098141      0.088697
O     12.47271     10.43466     17.39634        -0.476647      0.033629     -0.075596
O      3.58206      8.50569     10.43466         0.150945      1.096525     -0.035414
O     17.39634      8.50569     10.54374        -0.158900      0.591535      0.067316
O      3.58206     12.47271     10.54374         0.103609     -0.437805      0.035006
O     17.39634     12.47271     10.43466        -0.144599     -0.561939     -0.031289
O      3.58206     10.43466      8.50569         0.062669     -0.090084      0.607098
O     17.39634     10.54374      8.50569        -0.028135      0.089828      0.417564
O      3.58206     10.54374     12.47271         0.020382      0.036344     -0.493052
O     17.39634     10.43466     12.47271        -0.227696     -0.046784     -0.643792
O     10.43466      8.50569      3.58206        -0.038943      0.453594      0.139863
O     10.54374      8.50569     17.39634        -0.065689      0.716107     -0.223670
O     10.54374     12.47271      3.58206         0.034085     -0.994213      0.112953
O     10.43466     12.47271     17.39634         0.059764     -0.800700     -0.213695
O      8.50569      3.58206     10.43466         0.584550      0.151746     -0.053621
O      8.50569     17.39634     10.54374         0.533919     -0.179113     -0.001818
O     12.47271      3.58206     10.54374        -0.603127      0.192813      0.003631
O     12.47271     17.39634     10.43466        -0.253951      0.076423     -0.043666
O     11.90042     11.90042     19.56718        -0.264697     -0.311314      0.228170
O     19.56718     19.56718     19.56718         0.326057      0.292832      0.244040
O     19.56718     11.90042     11.90042         0.318033     -0.261207     -0.235391
O     11.90042     19.56718     11.90042        -0.239844      0.300693     -0.332142
O      9.45224      1.03696      9.45224         0.002519      0.065859     -0.133792
O      1.03696      9.45224      9.45224         0.083003     -0.075176     -0.172063
O      1.03696      1.03696      1.03696         0.109309      0.166071      0.028578
O      9.45224      9.45224      1.03696        -0.092448     -0.112486      0.011108
Zr     10.48920      2.52580     10.48920        -0.091466     -0.213486     -0.022505
Zr     10.48920     18.45260     10.48920        -0.097637      0.185918      0.192324
Zr     10.48920     10.48920      2.52580        -0.093272     -0.442592     -0.202288
Zr     10.48920     10.48920     18.45260        -0.144230      0.043641      0.439153
Zr      2.52580     10.48920     10.48920        -0.335227      0.295810      0.306760
Zr     18.45260     10.48920     10.48920         0.158957      0.019260     -0.098493
Pd     13.61197      8.95789      9.11016         0.022220     -0.002278      0.018621
Pd      5.69740      9.70860      9.96634         0.008275      0.025327      0.033711
Pd      6.86111     11.35252     11.71155        -0.011223      0.067267      0.007871
Pd     12.17477     13.13409      7.35155         0.015143     -0.024318     -0.021228
Pd     12.09009      7.89290      7.15819        -0.002197     -0.004877      0.027135
Pd      8.29149      7.05704      6.55163         0.001273      0.002441     -0.003806
Pd     10.86141     11.30007      5.58882         0.018112     -0.010706     -0.015644
Pd     14.63692      8.53537      6.68411         0.007739     -0.005002     -0.000363
Pd      9.62811     11.81075      8.01294         0.019562     -0.003911     -0.009937
Pd      6.69010      6.78852     12.30444         0.011383     -0.012408     -0.004734
Pd      6.39022      7.54463      8.27979         0.002689      0.027625     -0.004584
Pd      7.00521      8.88254     13.86547        -0.032398     -0.044271      0.040738
Pd     11.65566      6.54865      9.44787        -0.021689     -0.003484      0.038518
Pd      9.74649      9.29427      6.90335        -0.007161      0.000176     -0.017248
Pd      9.03733     13.97545      9.42525        -0.018496     -0.012768     -0.014833
Pd     10.04559      7.05285     11.50449        -0.030687      0.031541      0.035372
Pd     10.52949      8.96058      9.54682         0.002687      0.008695     -0.000488
Pd      9.36764     11.25609     10.61096        -0.014119      0.018238     -0.006143
Pd      8.90193      6.97553      9.11223        -0.012046      0.034059      0.009587
Pd      8.79845      6.95175     13.83405        -0.030491     -0.048483      0.054384
Pd      8.06641      8.89201     11.39079        -0.031960      0.038887      0.026105
Pd     11.94225     10.53946      7.84442         0.014469     -0.021889     -0.017608
Pd      7.14774     12.05488      9.16295        -0.012367      0.000671     -0.018428
Pd      8.01962      9.58135      8.79599         0.004721      0.021015      0.001401
Pd     14.19438      6.50891      8.44454        -0.022364     -0.012600     -0.000342
Pd     12.55129      8.25222     11.45647        -0.004696      0.003735      0.014706
Pd      8.83200     11.33184     13.42794        -0.005627      0.013174      0.004987
Pd     13.89665     11.93205      9.04132        -0.005224      0.002072      0.000862
Pd     12.86328     10.57166     13.08557         0.000362     -0.002455      0.009511
Pd     14.70840     10.29412     11.13174         0.008250      0.024526      0.002184
Pd     12.04695     10.73584     10.59299        -0.002151     -0.002319      0.003350
Pd     11.45705     13.16402      9.88237        -0.008278     -0.020303     -0.019405
Pd     13.57068     12.81344     11.67691        -0.001375     -0.004038     -0.005585
Pd     11.03416     12.54330     12.44444         0.002792     -0.010263      0.001618
Pd     11.10552     11.37029     14.87450        -0.007783     -0.014039      0.012979
Pd     10.47574      9.48292     12.56987        -0.008725      0.028287     -0.016148
Pd      9.45168      9.31646     15.02976        -0.017423     -0.014012     -0.030408
Pd      8.60915     13.50496     11.99080         0.015925      0.022955      0.005765
