152
# total energy = -1110.38487166 eVH     10.35389      5.87395      7.64558        -0.367989     -0.134974      1.101864
H     10.62451     15.10445      7.64558         0.343779      0.079208      0.933036
H     10.62451      5.87395     13.33282        -0.323074     -0.687696     -1.368190
H     10.35389     15.10445     13.33282        -0.601329      0.424874     -0.326198
H      7.64558     10.35389      5.87395         0.546310     -0.523806     -0.091903
H      7.64558     10.62451     15.10445         0.381566     -0.238930      0.046145
H     13.33282     10.62451      5.87395        -0.564022      0.638239     -0.038831
H     13.33282     10.35389     15.10445        -0.526728      0.401880      0.160539
H      5.87395      7.64558     10.35389         0.149607      0.546353      0.032102
H     15.10445      7.64558     10.62451         0.431534      0.991152      0.268187
H      5.87395     13.33282     10.62451        -0.222844     -0.493582      0.362160
H     15.10445     13.33282     10.35389         0.027407     -0.300939     -0.379830
H      5.87395     10.35389      7.64558        -0.089734     -0.386176      1.455179
H     15.10445     10.62451      7.64558         0.215312      0.491008      1.311974
H      5.87395     10.62451     13.33282        -0.206283     -0.365391     -1.194579
H     15.10445     10.35389     13.33282         0.592047      0.957903     -1.525773
H     10.35389      7.64558      5.87395        -0.562250      0.514522     -0.177173
H     10.62451      7.64558     15.10445        -0.140064      0.480092      0.173280
H     10.62451     13.33282      5.87395         0.877314     -1.355827     -0.316125
H     10.35389     13.33282     15.10445         0.244199     -0.559202     -0.097300
H      7.64558      5.87395     10.35389         0.715075      0.170689     -0.161180
H      7.64558     15.10445     10.62451         1.981204      0.764068      0.217945
H     13.33282      5.87395     10.62451        -2.679740     -0.939274     -0.487663
H     13.33282     15.10445     10.35389        -0.879201     -0.053251     -0.249205
H     12.45634     12.45634     19.01126         0.271982      0.258243     -0.226783
H     19.01126     19.01126     19.01126        -0.266851     -0.254811     -0.238095
H     19.01126     12.45634     12.45634        -0.283331      0.281609      0.186373
H     12.45634     19.01126     12.45634         0.256007     -0.250634      0.236324
C     10.35284      5.61067      6.59456         0.079030     -0.496713     -1.222171
C     10.62556     15.36773      6.59456         0.179604      0.756749     -0.812132
C     10.62556      5.61067     14.38384         0.186252     -0.307329      1.798237
C     10.35284     15.36773     14.38384         0.094214      0.384130      1.802305
C      6.59456     10.35284      5.61067        -1.133636     -0.110159     -0.874764
C      6.59456     10.62556     15.36773        -0.702890     -0.098805      0.779828
C     14.38384     10.62556      5.61067         0.856595     -0.109139     -0.998106
C     14.38384     10.35284     15.36773         1.194151      0.167301      1.103331
C      5.61067      6.59456     10.35284        -0.668204     -0.882176     -0.182645
C     15.36773      6.59456     10.62556         1.987265     -0.283802     -0.185244
C      5.61067     14.38384     10.62556        -1.570193     -0.006724     -0.135508
C     15.36773     14.38384     10.35284         0.486021      0.080361      0.008313
C      5.61067     10.35284      6.59456        -0.277264      0.199652     -1.344949
C     15.36773     10.62556      6.59456         0.287735     -0.245903     -0.993557
C      5.61067     10.62556     14.38384        -0.256652      0.433668      1.458835
C     15.36773     10.35284     14.38384         0.035768     -0.454564      1.936702
C     10.35284      6.59456      5.61067        -0.172533     -0.870484     -0.688082
C     10.62556      6.59456     15.36773        -0.114017     -0.744948      1.052466
C     10.62556     14.38384      5.61067        -0.503108      2.001065     -0.768831
C     10.35284     14.38384     15.36773        -0.270964      1.396353      0.496450
C      6.59456      5.61067     10.35284        -0.975075     -0.410307      0.088529
C      6.59456     15.36773     10.62556        -1.280702      0.374965     -0.331182
C     14.38384      5.61067     10.62556         1.281964     -1.282822      0.191604
C     14.38384     15.36773     10.35284         0.451949      0.313037      0.078396
C     10.40319      3.19606      7.29314         0.001330      0.308248     -0.105314
C     10.35913      4.25547      6.23373         0.140719     -0.549752      0.016437
C      0.08601      7.29314      7.29314        -0.053070     -0.292101     -0.422585
C      0.13007      6.23373      6.23373        -0.121167      0.692267      0.025995
C      0.08601      3.19606      3.19606        -0.106360      1.642609      0.170539
C      0.13007      4.25547      4.25547        -0.088414     -0.398320     -1.221944
C     10.40319      7.29314      3.19606         0.015931     -0.436255      0.123334
C     10.35913      6.23373      4.25547         0.261987      0.084290     -0.518557
C      7.29314     10.40319      3.19606        -1.677858      0.008967      0.324174
C      6.23373     10.35913      4.25547         0.659587      0.077340     -0.610831
C      7.29314      0.08601      7.29314        -0.408467     -0.013025     -0.310429
C      6.23373      0.13007      6.23373         0.699543     -0.055658      0.257581
C      3.19606      0.08601      3.19606         0.656726     -0.016602      0.183751
C      4.25547      0.13007      4.25547        -0.368468     -0.079481     -0.545515
C      3.19606     10.40319      7.29314         0.361793      0.020657     -0.315790
C      4.25547     10.35913      6.23373        -0.728673      0.071039      0.364986
C      3.19606      7.29314     10.40319         0.290560     -0.208034     -0.006308
C      4.25547      6.23373     10.35913         0.042915      0.641502      0.091533
C      7.29314      7.29314      0.08601        -0.719012     -0.610739     -0.022743
C      6.23373      6.23373      0.13007         0.890417      1.127797     -0.068059
C      3.19606      3.19606      0.08601         0.819429      0.510506      0.006609
C      4.25547      4.25547      0.13007        -0.330071     -1.753839     -0.129687
C      7.29314      3.19606     10.40319        -0.328274      0.273760     -0.003660
C      6.23373      4.25547     10.35913         0.504988     -0.025319      0.229515
O     10.43466      3.58206      8.50569        -0.048414      0.184415      0.258554
O     10.54374     17.39634      8.50569         0.042304     -0.233463      0.485509
O     10.54374      3.58206     12.47271         0.083498     -0.067202     -0.031667
O     10.43466     17.39634     12.47271        -0.023127     -0.141452     -0.272626
O      8.50569     10.43466      3.58206         0.986925      0.187317      0.383510
O      8.50569     10.54374     17.39634         0.575927      0.085082     -0.228988
O     12.47271     10.54374      3.58206        -0.419399     -0.039037      0.185540
O     12.47271     10.43466     17.39634        -0.512737     -0.068707     -0.195060
O      3.58206      8.50569     10.43466         0.183531      0.428730     -0.029200
O     17.39634      8.50569     10.54374        -0.230799      0.715515      0.045380
O      3.58206     12.47271     10.54374         0.161457     -0.679147      0.025850
O     17.39634     12.47271     10.43466        -0.185934     -0.477471     -0.010982
O      3.58206     10.43466      8.50569         0.225841     -0.060176      0.402951
O     17.39634     10.54374      8.50569        -0.171305      0.037287      0.411044
O      3.58206     10.54374     12.47271         0.147874      0.021396     -0.304392
O     17.39634     10.43466     12.47271         0.074770     -0.050217     -0.077524
O     10.43466      8.50569      3.58206         0.001850      0.274890      0.182446
O     10.54374      8.50569     17.39634         0.070273      0.433923     -0.177616
O     10.54374     12.47271      3.58206        -0.221931     -0.970983      0.339868
O     10.43466     12.47271     17.39634        -0.083569     -0.450057     -0.244890
O      8.50569      3.58206     10.43466         0.492426      0.197021     -0.010909
O      8.50569     17.39634     10.54374         0.665254     -0.200194      0.022171
O     12.47271      3.58206     10.54374        -0.744744      0.279134      0.036966
O     12.47271     17.39634     10.43466        -0.435601     -0.203884     -0.043657
O     11.90042     11.90042     19.56718        -0.346743     -0.307262      0.259959
O     19.56718     19.56718     19.56718         0.324807      0.312296      0.283336
O     19.56718     11.90042     11.90042         0.275891     -0.275314     -0.139531
O     11.90042     19.56718     11.90042        -0.305673      0.285349     -0.233417
O      9.45224      1.03696      9.45224        -0.059797      0.072659     -0.046462
O      1.03696      9.45224      9.45224         0.035865     -0.073847     -0.071175
O      1.03696      1.03696      1.03696         0.060453      0.144810      0.099602
O      9.45224      9.45224      1.03696        -0.138134     -0.093471      0.099911
Zr     10.48920      2.52580     10.48920         0.158689     -0.169065     -0.163665
Zr     10.48920     18.45260     10.48920        -0.100104      0.183238     -0.047412
Zr     10.48920     10.48920      2.52580         0.336666     -0.308944     -0.199757
Zr     10.48920     10.48920     18.45260         0.010037     -0.087817      0.204549
Zr      2.52580     10.48920     10.48920        -0.069343      0.175763     -0.051376
Zr     18.45260     10.48920     10.48920         0.143232     -0.129552     -0.249677
Ir     12.04292     12.48443     10.45854        -0.012797      0.003563      0.002276
Ir     11.20606      7.41621     10.27613         0.014390     -0.007806     -0.034117
Ir      8.84904      7.35837     11.54829         0.005347     -0.006804     -0.017166
Ir      7.47596     11.65054      7.66237        -0.009803     -0.004322     -0.004474
Ir     11.59299     12.08195      7.12029        -0.002002      0.001888      0.005457
Ir     13.77243      8.99292      7.54023         0.002683      0.001733     -0.010850
Ir     12.47795     13.95672      8.41553        -0.019229     -0.024986     -0.004808
Ir      9.73087     11.25878      5.55366         0.011024     -0.002733     -0.006915
Ir      9.07750     13.45737      7.07710        -0.003787     -0.014402      0.003224
Ir      9.27415      9.66591      7.51424        -0.003691      0.008419     -0.010687
Ir     13.28617      7.03911     11.95593         0.001023     -0.002195     -0.000302
Ir     13.61316      7.04057      9.11383         0.020860      0.001149     -0.005404
Ir     11.04514      7.59552     12.82577         0.003647     -0.006321     -0.013067
Ir     13.60378     11.56571      8.75424        -0.001194      0.000938     -0.007856
Ir     11.50395      9.63695      6.22920        -0.002226     -0.008077      0.001518
Ir      7.15636      9.15883      8.93117         0.005144     -0.010376     -0.010307
Ir     14.05996     11.43693     11.65532         0.002342      0.008543     -0.006526
Ir     11.65727      9.84427      8.87890         0.001218     -0.012551     -0.022946
Ir      9.43818      9.50622     10.23794         0.006054     -0.000720     -0.012151
Ir     13.87182      9.41043     10.17905         0.014421      0.000008     -0.010687
Ir     13.82232      9.16264     12.89423         0.023014      0.002432      0.001892
Ir     11.69531      9.76207     11.55486        -0.001115      0.001875     -0.020926
Ir      9.91052     11.73712      8.97068         0.006773     -0.009267     -0.013182
Ir      9.09038      7.43197      8.80047         0.017872     -0.001611     -0.022162
Ir     11.59673      7.54887      7.74999         0.039128     -0.015249     -0.014319
Ir      9.25654      9.47694     13.01225        -0.000980     -0.017556     -0.001908
Ir      7.51164     13.90371      8.99612        -0.000051     -0.010271      0.001454
Ir     10.87321     14.10543     11.95199        -0.010251     -0.005696     -0.002841
Ir     10.11182     14.15399      9.52103         0.002368     -0.015690     -0.004680
Ir      9.79105     11.68639     11.72798         0.004701     -0.006863     -0.009679
Ir      7.58657     11.56824     10.21391         0.003140     -0.005455     -0.009919
Ir      8.34829     13.74250     11.58663        -0.007445     -0.007228     -0.004540
Ir      7.52534     11.55613     12.82824        -0.009804     -0.013605      0.004720
Ir      9.77230     11.60699     14.34540         0.003049     -0.009977      0.001971
Ir     13.47221     13.88391     12.18959        -0.002641      0.007966      0.000792
Ir     11.99043     12.04823     13.08199        -0.000124      0.000433     -0.006094
Ir     11.57911      9.79578     14.19509         0.007526     -0.013950     -0.000843
Ir      7.15417      9.35721     11.49319        -0.000103     -0.015413     -0.008248
