14
# total energy = -118.06344027 eVC      2.49844      8.11031     -0.00000         0.018833      0.095960      0.000000
C      4.84381      8.11031      0.00000        -0.018833      0.095960      0.000000
C      2.39639      1.43753      0.00000        -0.018833     -0.095960      0.000000
C      0.05102      1.43753      0.00000         0.018833     -0.095960     -0.000000
C      1.96227      2.81146     -0.00000         0.042705     -0.029963      0.000000
C      0.48514      2.81146      0.00000        -0.042705     -0.029963      0.000000
C      2.93256      6.73638      0.00000        -0.042705      0.029963      0.000000
C      4.40969      6.73638     -0.00000         0.042705      0.029963     -0.000000
C      1.22371      8.72987     -0.00000         0.000000     -0.022594      0.000000
C      3.67112      0.81797     -0.00000         0.000000      0.022594      0.000000
C      1.22371      0.60641     -0.00000        -0.000000      0.038340      0.000000
C      3.67112      8.94143     -0.00000        -0.000000     -0.038340     -0.000000
Ir      2.44741      4.77392     -0.00000         0.000000      0.000000      0.000000
Ir     -0.00000      4.77392     -0.00000         0.000000      0.000000      0.000000
