152
# total energy = -1110.39329679 eVH     10.35389      5.87395      7.64558        -0.389622     -0.130145      1.153250
H     10.62451     15.10445      7.64558         0.326626      0.077565      0.918300
H     10.62451      5.87395     13.33282        -0.318726     -0.676005     -1.336059
H     10.35389     15.10445     13.33282        -0.586038      0.429571     -0.334469
H      7.64558     10.35389      5.87395         0.558976     -0.521027     -0.101698
H      7.64558     10.62451     15.10445         0.386257     -0.233872      0.043250
H     13.33282     10.62451      5.87395        -0.581509      0.647871     -0.049493
H     13.33282     10.35389     15.10445        -0.525165      0.385872      0.152891
H      5.87395      7.64558     10.35389         0.149053      0.556632      0.027518
H     15.10445      7.64558     10.62451         0.428087      1.024040      0.285539
H      5.87395     13.33282     10.62451        -0.220636     -0.504589      0.362234
H     15.10445     13.33282     10.35389         0.027845     -0.299369     -0.379963
H      5.87395     10.35389      7.64558        -0.105007     -0.414930      1.490159
H     15.10445     10.62451      7.64558         0.219997      0.516738      1.328055
H      5.87395     10.62451     13.33282        -0.218649     -0.370391     -1.206917
H     15.10445     10.35389     13.33282         0.613379      1.005316     -1.534180
H     10.35389      7.64558      5.87395        -0.587146      0.532092     -0.172595
H     10.62451      7.64558     15.10445        -0.133461      0.448076      0.156353
H     10.62451     13.33282      5.87395         0.868783     -1.326702     -0.312210
H     10.35389     13.33282     15.10445         0.223317     -0.563023     -0.107019
H      7.64558      5.87395     10.35389         0.721102      0.162936     -0.174839
H      7.64558     15.10445     10.62451         1.981147      0.747759      0.224205
H     13.33282      5.87395     10.62451        -2.652524     -0.901625     -0.518575
H     13.33282     15.10445     10.35389        -0.878041     -0.056847     -0.252932
H     12.45634     12.45634     19.01126         0.271962      0.257854     -0.227398
H     19.01126     19.01126     19.01126        -0.266791     -0.254776     -0.238758
H     19.01126     12.45634     12.45634        -0.284121      0.281765      0.184769
H     12.45634     19.01126     12.45634         0.256502     -0.250638      0.235732
C     10.35284      5.61067      6.59456         0.076610     -0.481947     -1.201507
C     10.62556     15.36773      6.59456         0.192781      0.753822     -0.811702
C     10.62556      5.61067     14.38384         0.180089     -0.294695      1.784634
C     10.35284     15.36773     14.38384         0.084970      0.383854      1.791684
C      6.59456     10.35284      5.61067        -1.139159     -0.110800     -0.897934
C      6.59456     10.62556     15.36773        -0.702055     -0.094573      0.797067
C     14.38384     10.62556      5.61067         0.835873     -0.111851     -0.989075
C     14.38384     10.35284     15.36773         1.176312      0.168364      1.097790
C      5.61067      6.59456     10.35284        -0.668666     -0.902410     -0.188932
C     15.36773      6.59456     10.62556         2.011576     -0.325132     -0.187915
C      5.61067     14.38384     10.62556        -1.568085     -0.014043     -0.142409
C     15.36773     14.38384     10.35284         0.484604      0.090707     -0.000252
C      5.61067     10.35284      6.59456        -0.274309      0.214480     -1.353967
C     15.36773     10.62556      6.59456         0.296690     -0.267433     -0.979103
C      5.61067     10.62556     14.38384        -0.256168      0.448451      1.457836
C     15.36773     10.35284     14.38384         0.001511     -0.491563      1.945104
C     10.35284      6.59456      5.61067        -0.158489     -0.845509     -0.699354
C     10.62556      6.59456     15.36773        -0.118689     -0.713346      1.044750
C     10.62556     14.38384      5.61067        -0.501056      1.985852     -0.751307
C     10.35284     14.38384     15.36773        -0.258605      1.355258      0.504050
C      6.59456      5.61067     10.35284        -0.990129     -0.409855      0.094974
C      6.59456     15.36773     10.62556        -1.254658      0.369313     -0.333164
C     14.38384      5.61067     10.62556         1.270168     -1.303070      0.218885
C     14.38384     15.36773     10.35284         0.458612      0.310562      0.086789
C     10.40319      3.19606      7.29314         0.001124      0.304690     -0.111841
C     10.35913      4.25547      6.23373         0.142379     -0.579126      0.016145
C      0.08601      7.29314      7.29314        -0.053457     -0.278703     -0.419614
C      0.13007      6.23373      6.23373        -0.123688      0.667407      0.016495
C      0.08601      3.19606      3.19606        -0.105653      1.664169      0.165400
C      0.13007      4.25547      4.25547        -0.098046     -0.391770     -1.205482
C     10.40319      7.29314      3.19606         0.015860     -0.451017      0.121201
C     10.35913      6.23373      4.25547         0.264263      0.086797     -0.537171
C      7.29314     10.40319      3.19606        -1.699061      0.011209      0.324793
C      6.23373     10.35913      4.25547         0.671453      0.081419     -0.624154
C      7.29314      0.08601      7.29314        -0.410831     -0.015580     -0.317948
C      6.23373      0.13007      6.23373         0.729624     -0.058698      0.244535
C      3.19606      0.08601      3.19606         0.661448     -0.018532      0.179699
C      4.25547      0.13007      4.25547        -0.355855     -0.086322     -0.574053
C      3.19606     10.40319      7.29314         0.348937      0.023689     -0.319646
C      4.25547     10.35913      6.23373        -0.741747      0.079363      0.362318
C      3.19606      7.29314     10.40319         0.284684     -0.202067     -0.006534
C      4.25547      6.23373     10.35913         0.042387      0.632683      0.091618
C      7.29314      7.29314      0.08601        -0.715590     -0.609900     -0.028153
C      6.23373      6.23373      0.13007         0.902907      1.124623     -0.065207
C      3.19606      3.19606      0.08601         0.824556      0.514770      0.000676
C      4.25547      4.25547      0.13007        -0.326196     -1.768425     -0.130473
C      7.29314      3.19606     10.40319        -0.324628      0.270793     -0.004565
C      6.23373      4.25547     10.35913         0.508917     -0.020476      0.231303
O     10.43466      3.58206      8.50569        -0.048661      0.187405      0.259885
O     10.54374     17.39634      8.50569         0.042223     -0.236604      0.486815
O     10.54374      3.58206     12.47271         0.083957     -0.076234     -0.022002
O     10.43466     17.39634     12.47271        -0.023219     -0.141499     -0.268048
O      8.50569     10.43466      3.58206         0.993610      0.190182      0.376117
O      8.50569     10.54374     17.39634         0.580037      0.084350     -0.229562
O     12.47271     10.54374      3.58206        -0.413170     -0.041113      0.181604
O     12.47271     10.43466     17.39634        -0.505820     -0.067406     -0.192643
O      3.58206      8.50569     10.43466         0.184602      0.422914     -0.028696
O     17.39634      8.50569     10.54374        -0.230515      0.712460      0.046443
O      3.58206     12.47271     10.54374         0.162214     -0.682519      0.026402
O     17.39634     12.47271     10.43466        -0.186775     -0.474689     -0.010275
O      3.58206     10.43466      8.50569         0.231781     -0.061915      0.406394
O     17.39634     10.54374      8.50569        -0.172078      0.037386      0.412826
O      3.58206     10.54374     12.47271         0.148428      0.021468     -0.303790
O     17.39634     10.43466     12.47271         0.082132     -0.051846     -0.069570
O     10.43466      8.50569      3.58206         0.005304      0.273493      0.183950
O     10.54374      8.50569     17.39634         0.069534      0.425629     -0.173826
O     10.54374     12.47271      3.58206        -0.222117     -0.975198      0.328810
O     10.43466     12.47271     17.39634        -0.082036     -0.450916     -0.245123
O      8.50569      3.58206     10.43466         0.488669      0.197531     -0.009769
O      8.50569     17.39634     10.54374         0.664856     -0.203843      0.022401
O     12.47271      3.58206     10.54374        -0.747655      0.280954      0.038356
O     12.47271     17.39634     10.43466        -0.432005     -0.206112     -0.043561
O     11.90042     11.90042     19.56718        -0.347284     -0.307188      0.261161
O     19.56718     19.56718     19.56718         0.324054      0.311667      0.284337
O     19.56718     11.90042     11.90042         0.274315     -0.273451     -0.138041
O     11.90042     19.56718     11.90042        -0.305270      0.282881     -0.233038
O      9.45224      1.03696      9.45224        -0.061552      0.073340     -0.044873
O      1.03696      9.45224      9.45224         0.035757     -0.075793     -0.069889
O      1.03696      1.03696      1.03696         0.064002      0.150762      0.094973
O      9.45224      9.45224      1.03696        -0.144111     -0.099122      0.095372
Zr     10.48920      2.52580     10.48920         0.164823     -0.174066     -0.168308
Zr     10.48920     18.45260     10.48920        -0.101583      0.187931     -0.051276
Zr     10.48920     10.48920      2.52580         0.345371     -0.310454     -0.206038
Zr     10.48920     10.48920     18.45260         0.015606     -0.088797      0.199402
Zr      2.52580     10.48920     10.48920        -0.072231      0.180272     -0.052441
Zr     18.45260     10.48920     10.48920         0.147678     -0.133351     -0.253301
Ir     12.03750     12.48315     10.45410         0.005477     -0.001646      0.002451
Ir     11.22089      7.41343     10.23755         0.015409     -0.006529     -0.010077
Ir      8.85852      7.34715     11.51856         0.004898     -0.013122     -0.009502
Ir      7.45877     11.64727      7.65720        -0.006406      0.004864      0.003110
Ir     11.59604     12.07006      7.11096         0.000013      0.000820     -0.001528
Ir     13.78705      8.99341      7.51844         0.006166     -0.000692     -0.011738
Ir     12.47011     13.95180      8.40561        -0.005869     -0.008345     -0.003689
Ir      9.74117     11.25344      5.53676         0.005794     -0.002856     -0.003046
Ir      9.07380     13.43927      7.07731        -0.004538     -0.009971      0.003928
Ir      9.26430      9.67444      7.49689        -0.000995      0.009043     -0.021045
Ir     13.28625      7.03431     11.96048        -0.002466     -0.000611      0.005338
Ir     13.64383      7.04263      9.10573         0.015491     -0.000485     -0.000299
Ir     11.04536      7.58952     12.79408        -0.000510     -0.002441     -0.019742
Ir     13.59641     11.56413      8.74999        -0.002428      0.004720     -0.000519
Ir     11.50170      9.61848      6.21657        -0.005607     -0.009545     -0.006881
Ir      7.16316      9.14343      8.91805        -0.015632     -0.006328     -0.015813
Ir     14.06124     11.44003     11.64482        -0.006474      0.004251     -0.004309
Ir     11.66222      9.82208      8.85605        -0.007344     -0.009339     -0.013816
Ir      9.44503      9.49710     10.22213         0.018103      0.014076      0.005788
Ir     13.88101      9.41365     10.16391         0.011767     -0.000087     -0.003566
Ir     13.84098      9.16258     12.87570         0.006978     -0.002171     -0.011375
Ir     11.70476      9.75727     11.53433         0.000258      0.002267     -0.000248
Ir      9.91822     11.72630      8.96083         0.004853     -0.001823     -0.001086
Ir      9.11483      7.43490      8.76245         0.011150     -0.016691     -0.028371
Ir     11.64658      7.51643      7.71479         0.024528     -0.015395     -0.018383
Ir      9.25596      9.46350     13.00102         0.005984      0.001493     -0.004753
Ir      7.50438     13.89855      8.99432         0.003637     -0.009593     -0.001109
Ir     10.86128     14.09652     11.95275        -0.008586     -0.005714      0.000153
Ir     10.11057     14.14300      9.51427        -0.000849     -0.008032     -0.000627
Ir      9.79022     11.67576     11.72191         0.005686     -0.012043      0.007747
Ir      7.59111     11.55870     10.20517         0.003736      0.005493     -0.005987
Ir      8.34267     13.73097     11.58130         0.000625     -0.005980     -0.002444
Ir      7.52556     11.53731     12.82019         0.000875     -0.008192     -0.001745
Ir      9.78039     11.58553     14.34188         0.007698     -0.013755     -0.005845
Ir     13.46328     13.88393     12.18505        -0.004772     -0.006762     -0.001935
Ir     11.99008     12.04071     13.07622        -0.002721     -0.011128     -0.011942
Ir     11.58808      9.77454     14.17348         0.001341     -0.006945     -0.015778
Ir      7.15936      9.34216     11.47533        -0.007245     -0.004889      0.006075
