152
# total energy = -1022.59335292 eVH     10.35389      5.87395      7.64558         0.441869     -0.007653      0.994825
H     10.62451     15.10445      7.64558         0.017439     -0.033375      0.667026
H     10.62451      5.87395     13.33282         0.133555      0.111383     -0.620162
H     10.35389     15.10445     13.33282        -0.268686     -0.068331     -0.552715
H      7.64558     10.35389      5.87395         0.363382     -0.058893      0.194837
H      7.64558     10.62451     15.10445         0.621681     -0.153292     -0.125801
H     13.33282     10.62451      5.87395        -0.997124     -0.461978      0.055405
H     13.33282     10.35389     15.10445        -0.481421     -0.074519     -0.049434
H      5.87395      7.64558     10.35389         0.066793      1.223732     -0.087088
H     15.10445      7.64558     10.62451        -0.169782      0.396740     -0.076766
H      5.87395     13.33282     10.62451         0.144331     -0.388619     -0.067307
H     15.10445     13.33282     10.35389        -0.082712     -0.985559     -0.299149
H      5.87395     10.35389      7.64558         0.120549     -0.003971      0.426480
H     15.10445     10.62451      7.64558         0.127421     -0.150816      0.764471
H      5.87395     10.62451     13.33282         0.269166     -0.046231     -0.415658
H     15.10445     10.35389     13.33282        -0.162891      0.043743     -0.633348
H     10.35389      7.64558      5.87395         0.173578      0.880854      0.078030
H     10.62451      7.64558     15.10445         0.012556      0.675179     -0.120486
H     10.62451     13.33282      5.87395         0.260799     -0.551513      0.186011
H     10.35389     13.33282     15.10445        -0.206258     -0.908787     -0.116520
H      7.64558      5.87395     10.35389         0.505967      0.042498     -0.162791
H      7.64558     15.10445     10.62451         0.918750     -0.188813      0.278102
H     13.33282      5.87395     10.62451        -0.426200      0.191934     -0.068842
H     13.33282     15.10445     10.35389        -0.995196     -0.060050      0.259286
H     12.45634     12.45634     19.01126         0.271217      0.258461     -0.220570
H     19.01126     19.01126     19.01126        -0.249107     -0.235338     -0.261631
H     19.01126     12.45634     12.45634        -0.244253      0.272203      0.235534
H     12.45634     19.01126     12.45634         0.206927     -0.284820      0.256396
C     10.35284      5.61067      6.59456        -0.077770     -0.457755     -0.643706
C     10.62556     15.36773      6.59456         0.017970      0.334091     -0.959578
C     10.62556      5.61067     14.38384        -0.009013     -0.276788      0.738231
C     10.35284     15.36773     14.38384         0.218073      0.722487      0.071887
C      6.59456     10.35284      5.61067        -0.528907     -0.040460     -0.233819
C      6.59456     10.62556     15.36773        -0.833125      0.138116      0.391683
C     14.38384     10.62556      5.61067         0.974754      0.290044     -0.324891
C     14.38384     10.35284     15.36773         0.755262     -0.120235      0.426455
C      5.61067      6.59456     10.35284        -0.396190     -0.906250      0.210103
C     15.36773      6.59456     10.62556         0.206256     -0.482826      0.040193
C      5.61067     14.38384     10.62556        -0.254723      0.381762     -0.012009
C     15.36773     14.38384     10.35284         0.332230      0.290742      0.256685
C      5.61067     10.35284      6.59456        -0.324706      0.008299     -0.840054
C     15.36773     10.62556      6.59456         0.534313     -0.153085     -1.209551
C      5.61067     10.62556     14.38384        -0.502478      0.007735      1.047479
C     15.36773     10.35284     14.38384         0.545036     -0.191233      1.303493
C     10.35284      6.59456      5.61067        -0.018001     -1.039785     -0.699448
C     10.62556      6.59456     15.36773         0.052380     -0.839332      0.363400
C     10.62556     14.38384      5.61067        -0.023326      1.371004     -0.727809
C     10.35284     14.38384     15.36773         0.062683      0.626531      0.611201
C      6.59456      5.61067     10.35284        -0.159084     -0.903747      0.132355
C      6.59456     15.36773     10.62556        -1.738060      0.489673      0.043230
C     14.38384      5.61067     10.62556         0.560273     -0.225146      0.000782
C     14.38384     15.36773     10.35284         0.402474      0.502593     -0.216793
C     10.40319      3.19606      7.29314         0.018346      0.962113     -0.233765
C     10.35913      4.25547      6.23373        -0.041844     -0.301452      0.708866
C      0.08601      7.29314      7.29314        -0.010781     -0.223175     -0.461789
C      0.13007      6.23373      6.23373        -0.011843      0.139249      0.179967
C      0.08601      3.19606      3.19606        -0.022258      0.703426      0.155829
C      0.13007      4.25547      4.25547        -0.101433     -0.191567     -0.164279
C     10.40319      7.29314      3.19606        -0.002203     -0.657323      0.491836
C     10.35913      6.23373      4.25547         0.003077      0.555226     -0.318573
C      7.29314     10.40319      3.19606        -0.397910      0.018521      0.872893
C      6.23373     10.35913      4.25547         0.232721     -0.001675     -0.170218
C      7.29314      0.08601      7.29314        -0.305256     -0.051896     -0.243205
C      6.23373      0.13007      6.23373         0.277532     -0.080997      0.256408
C      3.19606      0.08601      3.19606         0.349344     -0.056895      1.334385
C      4.25547      0.13007      4.25547        -0.170401     -0.014595     -0.437935
C      3.19606     10.40319      7.29314         0.739069      0.017266     -0.261817
C      4.25547     10.35913      6.23373        -0.123991      0.038243      0.121811
C      3.19606      7.29314     10.40319         0.542833     -1.248376      0.039378
C      4.25547      6.23373     10.35913        -0.749439      0.737103      0.029565
C      7.29314      7.29314      0.08601        -0.646024     -0.181843     -0.024607
C      6.23373      6.23373      0.13007         0.171807      0.262612     -0.014708
C      3.19606      3.19606      0.08601         0.252817      0.261044     -0.019952
C      4.25547      4.25547      0.13007        -0.054318     -0.033987      0.015951
C      7.29314      3.19606     10.40319        -0.354008      0.715672      0.028059
C      6.23373      4.25547     10.35913         0.750254     -0.203902      0.029620
O     10.43466      3.58206      8.50569        -0.054667      0.022637      0.289614
O     10.54374     17.39634      8.50569        -0.019983     -0.192985      0.612732
O     10.54374      3.58206     12.47271         0.065177      0.047978     -0.295864
O     10.43466     17.39634     12.47271        -0.024504     -0.125552     -0.559872
O      8.50569     10.43466      3.58206         0.399260     -0.009847     -0.007533
O      8.50569     10.54374     17.39634         0.465909      0.058316     -0.144327
O     12.47271     10.54374      3.58206        -0.228243      0.065332     -0.109916
O     12.47271     10.43466     17.39634        -0.849223      0.025612     -0.210630
O      3.58206      8.50569     10.43466         0.033005      0.892807      0.041974
O     17.39634      8.50569     10.54374        -0.033095      0.349771      0.080283
O      3.58206     12.47271     10.54374         0.065444     -0.428652      0.059361
O     17.39634     12.47271     10.43466        -0.159256     -0.724875      0.012609
O      3.58206     10.43466      8.50569        -0.055474     -0.061312      0.228234
O     17.39634     10.54374      8.50569        -0.133759      0.042620      0.443303
O      3.58206     10.54374     12.47271        -0.052226     -0.059615     -0.866333
O     17.39634     10.43466     12.47271        -0.191520      0.040908     -0.757136
O     10.43466      8.50569      3.58206         0.029213      0.677527      0.198282
O     10.54374      8.50569     17.39634         0.054303      0.402134     -0.071607
O     10.54374     12.47271      3.58206        -0.040586     -0.741671      0.248700
O     10.43466     12.47271     17.39634         0.059585     -0.851121     -0.279897
O      8.50569      3.58206     10.43466         0.497223      0.091889     -0.041368
O      8.50569     17.39634     10.54374         0.655063     -0.238202     -0.057599
O     12.47271      3.58206     10.54374        -0.505526      0.158914      0.041788
O     12.47271     17.39634     10.43466        -0.483806     -0.032608     -0.042791
O     11.90042     11.90042     19.56718        -0.307282     -0.310523      0.260478
O     19.56718     19.56718     19.56718         0.291532      0.274501      0.321257
O     19.56718     11.90042     11.90042         0.282380     -0.328543     -0.234817
O     11.90042     19.56718     11.90042        -0.221031      0.294618     -0.242081
O      9.45224      1.03696      9.45224        -0.071267      0.060034     -0.064682
O      1.03696      9.45224      9.45224         0.069268     -0.141723     -0.050235
O      1.03696      1.03696      1.03696         0.046432      0.030865      0.189316
O      9.45224      9.45224      1.03696        -0.035394     -0.085579      0.132454
Zr     10.48920      2.52580     10.48920        -0.001452     -0.075072     -0.028923
Zr     10.48920     18.45260     10.48920         0.035379      0.290284     -0.066612
Zr     10.48920     10.48920      2.52580        -0.077173     -0.028859     -0.370248
Zr     10.48920     10.48920     18.45260        -0.149081     -0.194246      0.302590
Zr      2.52580     10.48920     10.48920        -0.322731      0.338547     -0.481038
Zr     18.45260     10.48920     10.48920         0.215807      0.038887     -0.290221
Pd      9.04942     10.28150     13.43453         0.001743     -0.009366     -0.047347
Pd     10.63859      9.72191     11.17873        -0.021726      0.014083     -0.054867
Pd     13.76702      8.54125     12.77960        -0.002421      0.000241     -0.033793
Pd     11.01132     11.12170     15.09042        -0.003874     -0.013484     -0.023103
Pd     12.82698     11.17155     13.05739         0.017533      0.021937     -0.003235
Pd     14.98393     10.84948     11.36957        -0.016981      0.031787     -0.005446
Pd      6.68399      7.40856     12.31493        -0.005102      0.004832      0.005339
Pd      9.25801      7.30599     10.23127        -0.027578     -0.026362     -0.017369
Pd      9.25458      7.64507     12.89086         0.004430      0.000451     -0.027860
Pd     11.71759      7.26381     11.59110        -0.012391      0.006886     -0.048280
Pd     11.42255      7.90302      8.93514        -0.062965      0.048473     -0.022974
Pd      7.22465     11.83353     12.04082         0.009744     -0.002651     -0.027390
Pd      8.90525     14.65099      9.33442        -0.019518      0.016298      0.008729
Pd      8.43429     12.71578     14.34831        -0.006588     -0.015362     -0.009496
Pd     13.27046     13.95707      8.67525         0.053478      0.032491     -0.034343
Pd     10.80433     13.14172      8.44566         0.061848      0.052463      0.004180
Pd     14.04380     11.41615      8.97822         0.018245      0.028153     -0.022541
Pd      8.63524     14.09306     12.08123        -0.003180      0.002405      0.000657
Pd     12.23542     13.75423     13.98845         0.008259      0.008619      0.018237
Pd     11.14883     14.38123     11.05117         0.001523      0.012951      0.015550
Pd     14.06655     13.46898     12.15148         0.004878      0.034963      0.016886
Pd     12.27784     12.09324     10.69196         0.028547      0.019798     -0.008381
Pd     12.50287     12.04034      6.80807         0.032562      0.084578     -0.019713
Pd     13.57758      8.95036      7.88273         0.000937     -0.012505      0.022287
Pd      6.90895      8.42437      8.93841        -0.040886      0.016111     -0.038936
Pd      5.51808      9.86988     11.34338         0.001222      0.010819     -0.012792
Pd      8.97011      9.89908      8.14463         0.055421     -0.051179      0.075678
Pd      8.97840      7.36291      7.56251        -0.067015     -0.060366     -0.023292
Pd      9.44039     12.00812     10.44364         0.048545      0.021954      0.023546
Pd     11.39565     10.55083      8.75454         0.050445      0.101259     -0.039230
Pd     11.09797      9.36555      6.46629         0.033193     -0.026483     -0.010462
Pd      9.70485     11.70950      6.27242         0.037565     -0.049730      0.038830
Ir     11.37370      9.07935     13.52798        -0.013657      0.003706     -0.031974
Ir     13.07540      9.37903     10.44133         0.006683      0.031532     -0.008578
Ir     10.52643     12.35293     12.70727         0.010885     -0.002389     -0.013014
Ir      7.03634     10.97101      9.58674         0.012021      0.012415     -0.025444
Ir      8.22941     12.45793      8.20980         0.032674     -0.022559     -0.014947
Ir      8.09710      9.35385     11.17380         0.009031     -0.023364      0.004264
