35
# total energy = -301.58204410 eVC      6.68698     10.29582      7.65309        -0.009030     -0.011998      0.004525
C      8.07392      9.94406      7.58030        -0.014558      0.019714      0.002504
C      9.41794      5.71026      7.65043        -0.004640     -0.005582     -0.002543
C      1.46290      5.34704      7.66998         0.009546      0.002235      0.001897
C      4.19557      0.76212      7.63591         0.002354      0.001145      0.000960
C      2.80830      1.11309      7.56616         0.005682     -0.005793      0.000668
C      0.70456      4.16496      7.64609         0.006722      0.004218      0.004836
C      1.09073      2.78751      7.57260         0.001529     -0.000037      0.000720
C      5.35872      1.54964      7.64628        -0.010407      0.000049     -0.004605
C      5.52369      9.50853      7.67360         0.004350      0.000814      0.000677
C     10.17682      6.89214      7.64366         0.001880      0.003206      0.000240
C      9.79171      8.27011      7.57546        -0.017425      0.002884     -0.000348
C      0.77698      6.57638      7.64852        -0.012700      0.015045      0.002460
C      1.26224      7.92367      7.57924         0.000207     -0.006848      0.001508
C     10.10442      4.48089      7.64273         0.008112     -0.009713     -0.000997
C      9.62009      3.13391      7.56722        -0.002121      0.005195     -0.000395
C      4.27795     10.16431      7.65272        -0.017451      0.009810      0.002826
C      2.94314      9.64607      7.58066         0.005945     -0.001568      0.003236
C      6.60438      0.89357      7.63799         0.022950     -0.008822     -0.002038
C      7.93921      1.41112      7.56441        -0.007794      0.003136     -0.000369
N      8.80905      0.32130      7.47612         0.016143     -0.012092     -0.001544
N      0.15171      8.76646      7.48624        -0.013312      0.009396     -0.000045
N      8.54011      8.70484      7.60189         0.031968     -0.017406     -0.004979
N      2.34184      2.35243      7.59493        -0.009483      0.002304     -0.004400
N      2.07326     10.73535      7.48789        -0.016227      0.012218      0.000301
N     10.73152      2.29143      7.48097         0.013718     -0.009689     -0.000342
N      2.57546      8.32352      7.59983        -0.010050      0.007322     -0.003565
N      8.30696      2.73368      7.58099         0.008167     -0.008989     -0.008095
O      5.32879      2.87867      7.61895        -0.007371     -0.001700     -0.009312
O      5.55316      8.17923      7.68123         0.007877      0.001935      0.013322
O      8.08854      5.70746      7.61998         0.006236      0.008064     -0.008744
O      2.79269      5.34989      7.68171        -0.011332     -0.008490      0.010965
Zr      6.53800      4.45949      7.57948        -0.002595      0.008252     -0.022746
Zr      4.34308      6.59833      7.69201         0.009838     -0.006818      0.014390
Zr      0.02674     10.81047      6.85326         0.003273     -0.001398      0.009034
