152
# total energy = -1005.24191789 eVH     10.35389      5.87395      7.64558         0.163402      0.099876      0.578375
H     10.62451     15.10445      7.64558        -0.129007     -0.142626      0.515771
H     10.62451      5.87395     13.33282         0.563521      0.077948     -0.862824
H     10.35389     15.10445     13.33282         0.019827     -0.154146     -0.393360
H      7.64558     10.35389      5.87395         0.356783      0.040603      0.166820
H      7.64558     10.62451     15.10445         0.930052      0.556681      0.020488
H     13.33282     10.62451      5.87395        -0.442728      0.361152      0.102632
H     13.33282     10.35389     15.10445        -0.836642     -0.070781     -0.008843
H      5.87395      7.64558     10.35389         0.329297      1.269547      0.031765
H     15.10445      7.64558     10.62451        -0.107742      0.499531      0.317528
H      5.87395     13.33282     10.62451         0.180454     -0.604753      0.054824
H     15.10445     13.33282     10.35389        -0.091798     -0.961519     -0.193144
H      5.87395     10.35389      7.64558         0.217093      0.056037      0.446925
H     15.10445     10.62451      7.64558        -0.145144      0.537756      0.785492
H      5.87395     10.62451     13.33282         0.014036      0.459601     -1.095042
H     15.10445     10.35389     13.33282        -0.082365     -0.032844     -0.633197
H     10.35389      7.64558      5.87395         0.307643      1.200312      0.074032
H     10.62451      7.64558     15.10445         0.661893      0.696452     -0.220166
H     10.62451     13.33282      5.87395        -0.394737     -0.833735      0.284643
H     10.35389     13.33282     15.10445        -0.111061     -0.476949     -0.292848
H      7.64558      5.87395     10.35389         0.824948      0.063127     -0.197266
H      7.64558     15.10445     10.62451         0.807809     -0.176009      0.024596
H     13.33282      5.87395     10.62451        -0.714949      0.161133      0.522898
H     13.33282     15.10445     10.35389        -0.375518     -0.120789     -0.086890
H     12.45634     12.45634     19.01126         0.246650      0.273447     -0.232065
H     19.01126     19.01126     19.01126        -0.277010     -0.251422     -0.236068
H     19.01126     12.45634     12.45634        -0.278935      0.262411      0.218475
H     12.45634     19.01126     12.45634         0.236278     -0.261039      0.274809
C     10.35284      5.61067      6.59456        -0.299399     -0.780793     -0.148387
C     10.62556     15.36773      6.59456         0.058658      0.312876     -0.278293
C     10.62556      5.61067     14.38384        -0.148762     -0.504569      0.360866
C     10.35284     15.36773     14.38384         0.020467      0.185718      0.338595
C      6.59456     10.35284      5.61067        -0.397704      0.010012     -0.241149
C      6.59456     10.62556     15.36773        -0.722196      0.102531      0.665267
C     14.38384     10.62556      5.61067        -0.275068     -0.451209     -0.687398
C     14.38384     10.35284     15.36773         1.036734     -0.085002      0.172093
C      5.61067      6.59456     10.35284        -0.740250     -0.287159     -0.346598
C     15.36773      6.59456     10.62556         0.527019      0.043750     -0.392298
C      5.61067     14.38384     10.62556        -0.202668      0.606969     -0.013482
C     15.36773     14.38384     10.35284         0.268399      0.957681      0.021827
C      5.61067     10.35284      6.59456        -0.303919      0.011237     -0.798200
C     15.36773     10.62556      6.59456         0.507067     -0.233423      0.216455
C      5.61067     10.62556     14.38384        -0.726177     -0.000380      0.669032
C     15.36773     10.35284     14.38384         0.418009     -0.031481      0.987649
C     10.35284      6.59456      5.61067        -0.136365     -0.793633     -0.558610
C     10.62556      6.59456     15.36773        -0.040924     -0.503061      0.571710
C     10.62556     14.38384      5.61067         0.194355      1.206235     -0.354419
C     10.35284     14.38384     15.36773        -0.006190      0.856140      0.386153
C      6.59456      5.61067     10.35284         0.172766     -1.079500      0.291761
C      6.59456     15.36773     10.62556        -0.967937      0.231803      0.085732
C     14.38384      5.61067     10.62556         0.284354     -0.590691     -0.359848
C     14.38384     15.36773     10.35284         0.140447      0.359568     -0.074674
C     10.40319      3.19606      7.29314         0.004217      0.853046     -0.434488
C     10.35913      4.25547      6.23373         0.066085     -0.534215      0.117058
C      0.08601      7.29314      7.29314        -0.042031     -0.873756     -0.226036
C      0.13007      6.23373      6.23373        -0.052625      0.229586      0.427896
C      0.08601      3.19606      3.19606         0.021020      1.413632      0.257169
C      0.13007      4.25547      4.25547         0.005486     -0.593080     -0.284306
C     10.40319      7.29314      3.19606         0.001170     -0.331924      0.261210
C     10.35913      6.23373      4.25547         0.035502      0.023405     -0.734138
C      7.29314     10.40319      3.19606        -0.268201      0.017508      0.526529
C      6.23373     10.35913      4.25547         0.136467      0.041749     -0.054960
C      7.29314      0.08601      7.29314        -0.873993     -0.078215     -0.299339
C      6.23373      0.13007      6.23373         0.830938     -0.188537      0.407401
C      3.19606      0.08601      3.19606         0.862137     -0.032152      0.555331
C      4.25547      0.13007      4.25547        -0.520057     -0.108156     -0.667418
C      3.19606     10.40319      7.29314         0.543580     -0.013013     -0.789334
C      4.25547     10.35913      6.23373        -0.255768      0.062718      0.218486
C      3.19606      7.29314     10.40319         0.309086     -1.343523      0.020029
C      4.25547      6.23373     10.35913        -1.087601      0.020402      0.119691
C      7.29314      7.29314      0.08601        -0.453098     -0.441673     -0.014029
C      6.23373      6.23373      0.13007         0.589240      0.234955      0.022331
C      3.19606      3.19606      0.08601         0.452589      0.342753     -0.035549
C      4.25547      4.25547      0.13007        -0.138410     -0.578775     -0.049000
C      7.29314      3.19606     10.40319        -0.403003      0.461370      0.056499
C      6.23373      4.25547     10.35913         0.267906     -0.760234      0.142919
O     10.43466      3.58206      8.50569        -0.017890      0.050200      0.438079
O     10.54374     17.39634      8.50569         0.067970     -0.065695      0.319708
O     10.54374      3.58206     12.47271         0.025864     -0.120969     -0.134342
O     10.43466     17.39634     12.47271        -0.026958     -0.167242     -0.519007
O      8.50569     10.43466      3.58206         0.284826     -0.022300      0.012253
O      8.50569     10.54374     17.39634         0.806767     -0.048445     -0.177372
O     12.47271     10.54374      3.58206        -0.773887      0.097246      0.087211
O     12.47271     10.43466     17.39634        -0.471841      0.034226     -0.068805
O      3.58206      8.50569     10.43466         0.148999      1.111085     -0.032254
O     17.39634      8.50569     10.54374        -0.158196      0.600335      0.066157
O      3.58206     12.47271     10.54374         0.101688     -0.437902      0.033780
O     17.39634     12.47271     10.43466        -0.143985     -0.567870     -0.032045
O      3.58206     10.43466      8.50569         0.058525     -0.090417      0.609643
O     17.39634     10.54374      8.50569        -0.024072      0.091245      0.404972
O      3.58206     10.54374     12.47271         0.031303      0.036104     -0.495877
O     17.39634     10.43466     12.47271        -0.226575     -0.045785     -0.644138
O     10.43466      8.50569      3.58206        -0.040779      0.450712      0.142332
O     10.54374      8.50569     17.39634        -0.070139      0.727451     -0.226991
O     10.54374     12.47271      3.58206         0.031124     -0.995659      0.124144
O     10.43466     12.47271     17.39634         0.061550     -0.801496     -0.221315
O      8.50569      3.58206     10.43466         0.587484      0.150088     -0.054542
O      8.50569     17.39634     10.54374         0.541477     -0.178416     -0.002197
O     12.47271      3.58206     10.54374        -0.607339      0.191698      0.002580
O     12.47271     17.39634     10.43466        -0.252517      0.081654     -0.044455
O     11.90042     11.90042     19.56718        -0.265959     -0.313648      0.224956
O     19.56718     19.56718     19.56718         0.326615      0.293537      0.239346
O     19.56718     11.90042     11.90042         0.318149     -0.261302     -0.234847
O     11.90042     19.56718     11.90042        -0.241318      0.298966     -0.334325
O      9.45224      1.03696      9.45224         0.002340      0.063134     -0.138337
O      1.03696      9.45224      9.45224         0.079650     -0.076671     -0.178327
O      1.03696      1.03696      1.03696         0.105372      0.166387      0.029695
O      9.45224      9.45224      1.03696        -0.091733     -0.111966      0.009879
Zr     10.48920      2.52580     10.48920        -0.085849     -0.206515     -0.020541
Zr     10.48920     18.45260     10.48920        -0.100612      0.183963      0.199712
Zr     10.48920     10.48920      2.52580        -0.078916     -0.441774     -0.190260
Zr     10.48920     10.48920     18.45260        -0.134454      0.052403      0.452225
Zr      2.52580     10.48920     10.48920        -0.328796      0.305869      0.323511
Zr     18.45260     10.48920     10.48920         0.155304      0.017588     -0.090124
Pd     13.61141      8.95301      9.11332         0.015892      0.014653      0.024288
Pd      5.68337      9.70693      9.94137         0.065291      0.003041      0.042807
Pd      6.87246     11.30590     11.71558        -0.031410      0.038868     -0.025249
Pd     12.16051     13.14528      7.37204         0.033344     -0.045833     -0.044587
Pd     12.09190      7.89537      7.15013         0.019950     -0.026767      0.003447
Pd      8.28402      7.06749      6.55068         0.017279     -0.024719     -0.014703
Pd     10.84047     11.31442      5.59809         0.028011     -0.034606     -0.016345
Pd     14.64282      8.54217      6.69306        -0.000648     -0.032315     -0.019743
Pd      9.61950     11.79995      8.03032         0.062732      0.010621     -0.025303
Pd      6.68890      6.80308     12.29785        -0.004016     -0.031347      0.015728
Pd      6.38760      7.52399      8.28333         0.038585      0.055340      0.023927
Pd      7.03163      8.90835     13.84379        -0.061881     -0.010978      0.047772
Pd     11.68290      6.55390      9.43965        -0.025684     -0.048204      0.006402
Pd      9.74929      9.28987      6.90328         0.033455      0.018403     -0.004546
Pd      9.04391     13.96885      9.42910         0.014079      0.001630     -0.002155
Pd     10.07610      7.04899     11.48145        -0.085062     -0.027977      0.006024
Pd     10.53850      8.94535      9.52923         0.014787      0.160919      0.029322
Pd      9.37494     11.24721     10.62620         0.036555      0.003170     -0.031575
Pd      8.91678      6.95371      9.10188        -0.035631      0.002509      0.042586
Pd      8.81706      6.97956     13.80688        -0.015332     -0.053382      0.025535
Pd      8.09649      8.87539     11.37835        -0.077955      0.031563     -0.032407
Pd     11.95348     10.54438      7.83508        -0.028919      0.015998      0.006888
Pd      7.15609     12.04996      9.17422        -0.014344     -0.001142     -0.011200
Pd      8.01950      9.56737      8.79133        -0.029741      0.004004      0.048230
Pd     14.22893      6.51605      8.45049        -0.057197     -0.006140     -0.011353
Pd     12.55579      8.25543     11.46391         0.013297      0.028096      0.000245
Pd      8.83575     11.33385     13.43363         0.016328      0.022911      0.004056
Pd     13.90848     11.94049      9.04274        -0.042626     -0.039139      0.001862
Pd     12.85329     10.57517     13.07858         0.021772     -0.005532      0.015420
Pd     14.70534     10.28701     11.13525        -0.022927      0.020379     -0.005131
Pd     12.04236     10.73992     10.58641        -0.014437     -0.054614     -0.033653
Pd     11.46790     13.17465      9.89661        -0.052354     -0.023611     -0.016220
Pd     13.57824     12.80095     11.68876        -0.025484      0.048012     -0.021696
Pd     11.02846     12.55815     12.44452        -0.008257      0.000063     -0.012159
Pd     11.11299     11.38208     14.86496        -0.029091     -0.031858      0.045345
Pd     10.47757      9.46690     12.58214         0.034008      0.057928      0.012479
Pd      9.45704      9.32567     15.05348        -0.004011      0.009733     -0.019154
Pd      8.58511     13.49712     11.98319         0.045044      0.004013      0.038637
