152
# total energy = -1024.40971020 eVH     10.35389      5.87395      7.64558         0.479196      0.028491      0.733418
H     10.62451     15.10445      7.64558         0.055491     -0.197966      0.623706
H     10.62451      5.87395     13.33282         0.090323      0.160021     -0.562645
H     10.35389     15.10445     13.33282        -0.469371     -0.036589     -0.746822
H      7.64558     10.35389      5.87395         0.341493      0.023249      0.161314
H      7.64558     10.62451     15.10445         0.904745     -0.259404      0.033326
H     13.33282     10.62451      5.87395        -0.763336     -0.095178      0.150599
H     13.33282     10.35389     15.10445        -0.881893     -0.401912      0.193647
H      5.87395      7.64558     10.35389         0.165968      0.745928     -0.325279
H     15.10445      7.64558     10.62451        -0.138549      0.386487     -0.021635
H      5.87395     13.33282     10.62451         0.159178     -0.517388     -0.107941
H     15.10445     13.33282     10.35389        -0.093080     -1.190504      0.081668
H      5.87395     10.35389      7.64558         0.141597      0.163842      0.516777
H     15.10445     10.62451      7.64558         0.008480      0.093868      1.049771
H      5.87395     10.62451     13.33282         0.081404     -0.043004     -0.456133
H     15.10445     10.35389     13.33282        -0.162739     -0.169126     -0.465332
H     10.35389      7.64558      5.87395         0.085599      1.025398      0.233437
H     10.62451      7.64558     15.10445         0.001385      0.270606     -0.164776
H     10.62451     13.33282      5.87395        -0.099394     -0.390077      0.319408
H     10.35389     13.33282     15.10445        -0.443092     -0.593375     -0.005521
H      7.64558      5.87395     10.35389         0.513097      0.095602     -0.090298
H      7.64558     15.10445     10.62451         0.930487     -0.225718     -0.170336
H     13.33282      5.87395     10.62451        -0.593266      0.098972     -0.070134
H     13.33282     15.10445     10.35389        -0.594940     -0.058117      0.247614
H     12.45634     12.45634     19.01126         0.234791      0.279285     -0.237024
H     19.01126     19.01126     19.01126        -0.249830     -0.248838     -0.241858
H     19.01126     12.45634     12.45634        -0.266287      0.265243      0.220267
H     12.45634     19.01126     12.45634         0.237837     -0.266335      0.239119
C     10.35284      5.61067      6.59456        -0.204409     -0.696649      0.100874
C     10.62556     15.36773      6.59456        -0.046851      0.386264     -0.849395
C     10.62556      5.61067     14.38384        -0.005029     -0.053387      0.682254
C     10.35284     15.36773     14.38384         0.190044      0.693601      0.162848
C      6.59456     10.35284      5.61067        -0.341240     -0.017600     -0.300218
C      6.59456     10.62556     15.36773        -1.080248      0.263257      0.295305
C     14.38384     10.62556      5.61067         0.404276      0.369993     -0.687537
C     14.38384     10.35284     15.36773         1.026119      0.016271      0.255518
C      5.61067      6.59456     10.35284        -0.400744     -0.388499      0.369563
C     15.36773      6.59456     10.62556         0.190529     -0.498219      0.015239
C      5.61067     14.38384     10.62556        -0.199083      0.577052      0.005085
C     15.36773     14.38384     10.35284         0.339666      0.037328     -0.124170
C      5.61067     10.35284      6.59456        -0.327246     -0.082070     -1.025380
C     15.36773     10.62556      6.59456         0.893414     -0.341004     -0.986438
C      5.61067     10.62556     14.38384        -0.422132      0.028946      0.310156
C     15.36773     10.35284     14.38384         0.650206     -0.094947      1.084658
C     10.35284      6.59456      5.61067        -0.222986     -0.585763     -0.942564
C     10.62556      6.59456     15.36773         0.057829     -0.267758      0.043345
C     10.62556     14.38384      5.61067         0.074245      1.200224     -0.422026
C     10.35284     14.38384     15.36773         0.271120      0.152891      0.695680
C      6.59456      5.61067     10.35284        -0.196575     -0.742128      0.130975
C      6.59456     15.36773     10.62556        -1.217657      0.247722      0.161624
C     14.38384      5.61067     10.62556         1.045765     -0.297211      0.036484
C     14.38384     15.36773     10.35284        -0.478770      0.815328     -0.399528
C     10.40319      3.19606      7.29314        -0.031820      0.863111     -0.409923
C     10.35913      4.25547      6.23373         0.053620     -0.499714      0.551194
C      0.08601      7.29314      7.29314        -0.022507     -0.421955     -0.349224
C      0.13007      6.23373      6.23373        -0.023554      0.016278      0.102778
C      0.08601      3.19606      3.19606         0.008897      1.267378      0.191397
C      0.13007      4.25547      4.25547        -0.045910     -0.215662     -0.201781
C     10.40319      7.29314      3.19606        -0.014828     -1.054307      0.368113
C     10.35913      6.23373      4.25547         0.033871      0.468107     -0.675414
C      7.29314     10.40319      3.19606        -0.312659      0.033675      0.720174
C      6.23373     10.35913      4.25547         0.154704      0.073534     -0.105575
C      7.29314      0.08601      7.29314        -0.648218     -0.022373     -0.275337
C      6.23373      0.13007      6.23373         0.380596     -0.077356      0.522697
C      3.19606      0.08601      3.19606         1.004605     -0.005895      0.253078
C      4.25547      0.13007      4.25547        -0.152429     -0.039431     -0.523065
C      3.19606     10.40319      7.29314         0.370615     -0.012652     -0.968941
C      4.25547     10.35913      6.23373        -0.277034      0.093553      0.247150
C      3.19606      7.29314     10.40319         0.512510     -1.315827     -0.039785
C      4.25547      6.23373     10.35913        -0.535240      0.753384      0.110721
C      7.29314      7.29314      0.08601        -0.393676     -0.222765     -0.000691
C      6.23373      6.23373      0.13007         0.157120      0.144072     -0.003342
C      3.19606      3.19606      0.08601         0.255656      0.255502     -0.016948
C      4.25547      4.25547      0.13007        -0.120629     -0.054773      0.008198
C      7.29314      3.19606     10.40319        -0.390401      0.649185      0.008054
C      6.23373      4.25547     10.35913         1.101610     -0.088561      0.055399
O     10.43466      3.58206      8.50569        -0.025346      0.048373      0.447987
O     10.54374     17.39634      8.50569        -0.006561     -0.108632      0.458658
O     10.54374      3.58206     12.47271         0.040002     -0.105977     -0.131750
O     10.43466     17.39634     12.47271        -0.058539     -0.044796     -0.471623
O      8.50569     10.43466      3.58206         0.293041     -0.032060     -0.032721
O      8.50569     10.54374     17.39634         0.718518      0.025814     -0.197073
O     12.47271     10.54374      3.58206        -0.791803     -0.038429      0.151583
O     12.47271     10.43466     17.39634        -0.285517     -0.027426      0.032760
O      3.58206      8.50569     10.43466         0.157796      1.086826     -0.037146
O     17.39634      8.50569     10.54374        -0.096243      0.428119      0.058117
O      3.58206     12.47271     10.54374         0.067960     -0.400027      0.036830
O     17.39634     12.47271     10.43466        -0.160266     -0.684084     -0.008068
O      3.58206     10.43466      8.50569         0.064964     -0.068203      0.805007
O     17.39634     10.54374      8.50569        -0.061449      0.047454      0.335668
O      3.58206     10.54374     12.47271        -0.013229      0.037768     -0.240315
O     17.39634     10.43466     12.47271        -0.251404      0.003592     -0.709968
O     10.43466      8.50569      3.58206         0.118336      0.833188      0.192781
O     10.54374      8.50569     17.39634         0.032439      0.619438     -0.148159
O     10.54374     12.47271      3.58206         0.006469     -1.011758      0.179637
O     10.43466     12.47271     17.39634        -0.037881     -0.914572     -0.204777
O      8.50569      3.58206     10.43466         0.558176      0.121905     -0.015908
O      8.50569     17.39634     10.54374         0.515369     -0.198449     -0.009745
O     12.47271      3.58206     10.54374        -0.473737      0.159109      0.057966
O     12.47271     17.39634     10.43466        -0.415113      0.023254     -0.004924
O     11.90042     11.90042     19.56718        -0.265161     -0.329061      0.255093
O     19.56718     19.56718     19.56718         0.280092      0.292371      0.282497
O     19.56718     11.90042     11.90042         0.300465     -0.301128     -0.203495
O     11.90042     19.56718     11.90042        -0.267425      0.285589     -0.248465
O      9.45224      1.03696      9.45224        -0.079468      0.045521     -0.060646
O      1.03696      9.45224      9.45224         0.041386     -0.152356     -0.119242
O      1.03696      1.03696      1.03696         0.023138      0.118310      0.197792
O      9.45224      9.45224      1.03696        -0.067543     -0.086598      0.118505
Zr     10.48920      2.52580     10.48920        -0.048694     -0.117535     -0.167613
Zr     10.48920     18.45260     10.48920         0.012034      0.214864     -0.022574
Zr     10.48920     10.48920      2.52580        -0.161581     -0.186572     -0.517131
Zr     10.48920     10.48920     18.45260        -0.012184      0.001003      0.441419
Zr      2.52580     10.48920     10.48920        -0.360795      0.292568      0.196043
Zr     18.45260     10.48920     10.48920         0.202169      0.053135     -0.202107
Pd      8.34355      9.71425     13.22789        -0.011104      0.009805      0.054217
Pd     10.50169      9.46140     10.19345         0.035386     -0.035276     -0.081244
Pd     13.07273      8.76301     12.46403        -0.008878      0.023421      0.033288
Pd     10.30587     10.76612     15.04666         0.019435     -0.001080      0.022730
Pd     12.84179     11.35569     13.53712        -0.000666     -0.064360      0.065232
Pd     14.85389     10.64949     11.36200         0.001438     -0.055557     -0.006967
Pd      6.86320      7.57019     12.28948         0.017203     -0.027021      0.021221
Pd      9.22184      7.20172      9.46930        -0.009193      0.007551     -0.023411
Pd      9.55699      7.55227     12.19752         0.042218     -0.052579      0.006098
Pd     11.75726      7.10304     10.81533        -0.037254     -0.014734     -0.000087
Pd     11.63428      7.83110      8.26547        -0.019847     -0.005054      0.031273
Pd      7.15652     11.68478     11.54061         0.020373      0.007076     -0.054969
Pd      9.29929     14.31668      9.27582        -0.031685      0.028208     -0.001711
Pd      8.15692     12.31090     14.03593        -0.019459      0.008158     -0.016160
Pd     14.23973     14.20675      8.34385         0.003868     -0.042053      0.006172
Pd     11.75539     13.31022      8.79756        -0.011777      0.001342      0.020487
Pd     14.13112     11.62009      8.99348        -0.008619      0.028490     -0.009625
Pd      8.71679     13.98231     12.01922         0.013544     -0.023703      0.009114
Pd     12.22135     13.97599     13.94876        -0.010709      0.048812      0.033873
Pd     11.41630     14.13164     11.30466        -0.018744      0.018834     -0.015635
Pd     14.01146     13.30633     12.09608         0.024944      0.023266     -0.033056
Pd     12.27117     11.52523     10.88013         0.026194     -0.007793      0.010663
Pd     13.01171     12.63047      6.58949         0.014452     -0.048357     -0.004847
Pd     13.96838      8.83801      7.57544        -0.000501      0.003525     -0.000491
Pd      6.98449      8.45833      8.38577        -0.049465      0.025686      0.006921
Pd      5.55087     10.04220     10.03394         0.005023     -0.023105      0.050812
Pd      9.40997      9.46170      7.47336        -0.016215      0.049183     -0.003181
Pd      8.48423      6.97986      6.86765         0.004941     -0.018335      0.001334
Pd      9.65700     11.94299     10.53872        -0.045832      0.014082     -0.014888
Pd     11.82123     10.61759      8.04878        -0.012674     -0.022849      0.031927
Pd     11.78838      8.92772      5.85413         0.003097      0.012026      0.006276
Pd     10.62519     11.33815      5.74559        -0.013055      0.000164     -0.026235
Ir     10.80606      9.80610     12.69029         0.006379      0.023312      0.065723
Ir     13.16442      9.25680      9.95400        -0.020816      0.016172     -0.029985
Ir     10.50548     12.26349     12.89459        -0.059957      0.042781      0.025315
Ir      7.75429     11.00972      9.04895         0.088354      0.034791     -0.030654
Ir      9.61207     12.06852      7.97628        -0.114335     -0.103881      0.004944
Ir      8.01652      9.21386     10.71100        -0.038917     -0.065099      0.031017
