152
# total energy = -1004.57322700 eVH     10.35389      5.87395      7.64558        -0.108693      0.098675      0.677313
H     10.62451     15.10445      7.64558        -0.081638     -0.187892      0.526978
H     10.62451      5.87395     13.33282         0.406755      0.016963     -0.868197
H     10.35389     15.10445     13.33282         0.046893     -0.167857     -0.494965
H      7.64558     10.35389      5.87395         0.359385      0.041479      0.152351
H      7.64558     10.62451     15.10445         0.977814      0.630386      0.016827
H     13.33282     10.62451      5.87395        -0.483242      0.172613      0.122423
H     13.33282     10.35389     15.10445        -0.834513     -0.245875      0.037690
H      5.87395      7.64558     10.35389         0.241420      1.733138      0.196265
H     15.10445      7.64558     10.62451        -0.094123      0.513885      0.253796
H      5.87395     13.33282     10.62451         0.195009     -0.567632     -0.013630
H     15.10445     13.33282     10.35389         0.118294     -1.220657     -0.433180
H      5.87395     10.35389      7.64558         0.147914      0.043448      0.487641
H     15.10445     10.62451      7.64558        -0.198785      0.755798      1.217980
H      5.87395     10.62451     13.33282         0.005600      0.512313     -1.177779
H     15.10445     10.35389     13.33282         0.033949     -0.194528     -0.787935
H     10.35389      7.64558      5.87395         0.174316      1.346156      0.091311
H     10.62451      7.64558     15.10445         0.520220      0.761977     -0.106136
H     10.62451     13.33282      5.87395        -0.363451     -0.673214      0.311578
H     10.35389     13.33282     15.10445        -0.260884     -0.481972     -0.331563
H      7.64558      5.87395     10.35389         1.134898     -0.192220     -0.093064
H      7.64558     15.10445     10.62451         0.830613     -0.191695     -0.013767
H     13.33282      5.87395     10.62451        -0.585931      0.132774      0.627987
H     13.33282     15.10445     10.35389        -0.576323     -0.032785     -0.258133
H     12.45634     12.45634     19.01126         0.266499      0.259071     -0.229294
H     19.01126     19.01126     19.01126        -0.272123     -0.259997     -0.222568
H     19.01126     12.45634     12.45634        -0.278139      0.257546      0.224153
H     12.45634     19.01126     12.45634         0.240517     -0.278647      0.246837
C     10.35284      5.61067      6.59456        -0.171703     -0.816037     -0.336296
C     10.62556     15.36773      6.59456         0.037216      0.226643     -0.363336
C     10.62556      5.61067     14.38384        -0.033671     -0.398439      0.588769
C     10.35284     15.36773     14.38384         0.003392      0.273610      0.497382
C      6.59456     10.35284      5.61067        -0.451179      0.041070     -0.290950
C      6.59456     10.62556     15.36773        -0.910100      0.150469      0.694928
C     14.38384     10.62556      5.61067         0.561768     -0.052219     -0.875580
C     14.38384     10.35284     15.36773         0.937183     -0.115415      0.325366
C      5.61067      6.59456     10.35284        -0.876374     -0.847031     -0.398031
C     15.36773      6.59456     10.62556         0.682594     -0.020277     -0.264831
C      5.61067     14.38384     10.62556        -0.235699      0.622134      0.011537
C     15.36773     14.38384     10.35284         0.325000      1.179249      0.082404
C      5.61067     10.35284      6.59456        -0.274300      0.017469     -0.715995
C     15.36773     10.62556      6.59456         0.553969     -0.249041     -0.670185
C      5.61067     10.62556     14.38384        -0.546826     -0.014215      0.737864
C     15.36773     10.35284     14.38384         0.509000     -0.087567      1.069254
C     10.35284      6.59456      5.61067        -0.054259     -0.917792     -0.391955
C     10.62556      6.59456     15.36773         0.135770     -0.795739      0.497578
C     10.62556     14.38384      5.61067         0.095544      1.132906     -0.298062
C     10.35284     14.38384     15.36773        -0.026829      1.090313      0.522654
C      6.59456      5.61067     10.35284        -0.449936     -1.238744      0.107878
C      6.59456     15.36773     10.62556        -0.991864      0.186250      0.102245
C     14.38384      5.61067     10.62556        -0.144282     -0.470660     -0.313992
C     14.38384     15.36773     10.35284         0.293678      0.540805     -0.050623
C     10.40319      3.19606      7.29314         0.013043      0.914984     -0.508109
C     10.35913      4.25547      6.23373         0.051015     -0.560714      0.130267
C      0.08601      7.29314      7.29314        -0.028771     -0.983600     -0.206223
C      0.13007      6.23373      6.23373        -0.098342      0.286586      0.318241
C      0.08601      3.19606      3.19606         0.052353      1.365851      0.150998
C      0.13007      4.25547      4.25547        -0.037662     -0.368292     -0.345949
C     10.40319      7.29314      3.19606        -0.001188     -0.475597      0.271819
C     10.35913      6.23373      4.25547        -0.010650      0.108062     -0.759395
C      7.29314     10.40319      3.19606        -0.283431      0.018258      0.547401
C      6.23373     10.35913      4.25547         0.203275      0.086248     -0.112037
C      7.29314      0.08601      7.29314        -1.021203     -0.101420     -0.363770
C      6.23373      0.13007      6.23373         0.700033     -0.203243      0.458011
C      3.19606      0.08601      3.19606         1.245867     -0.018657      0.459785
C      4.25547      0.13007      4.25547        -0.683671     -0.184070     -0.329294
C      3.19606     10.40319      7.29314         0.572394      0.019950     -0.391020
C      4.25547     10.35913      6.23373        -0.234181      0.105560      0.225792
C      3.19606      7.29314     10.40319         0.348761     -0.917105      0.034231
C      4.25547      6.23373     10.35913        -1.112203      0.154801      0.183622
C      7.29314      7.29314      0.08601        -0.476247     -0.504105     -0.014658
C      6.23373      6.23373      0.13007         0.488298      0.321422      0.009656
C      3.19606      3.19606      0.08601         0.521378      0.407127     -0.026006
C      4.25547      4.25547      0.13007        -0.039061     -0.719010     -0.093751
C      7.29314      3.19606     10.40319        -0.399015      0.506366      0.055291
C      6.23373      4.25547     10.35913         0.544248     -0.705254      0.222123
O     10.43466      3.58206      8.50569        -0.008017      0.064545      0.474485
O     10.54374     17.39634      8.50569         0.057349     -0.020736      0.253638
O     10.54374      3.58206     12.47271        -0.001888     -0.099614     -0.108571
O     10.43466     17.39634     12.47271        -0.037595     -0.138153     -0.491573
O      8.50569     10.43466      3.58206         0.344379     -0.023927      0.036629
O      8.50569     10.54374     17.39634         0.849765     -0.050851     -0.152460
O     12.47271     10.54374      3.58206        -0.889804      0.098819      0.045244
O     12.47271     10.43466     17.39634        -0.582382      0.023571     -0.140571
O      3.58206      8.50569     10.43466         0.191581      0.914473     -0.018907
O     17.39634      8.50569     10.54374        -0.150525      0.673861      0.045482
O      3.58206     12.47271     10.54374         0.104086     -0.544092      0.051234
O     17.39634     12.47271     10.43466        -0.166652     -0.603526     -0.033055
O      3.58206     10.43466      8.50569         0.077284     -0.063695      0.472149
O     17.39634     10.54374      8.50569         0.018350      0.096651      0.400866
O      3.58206     10.54374     12.47271        -0.031224      0.027388     -0.361919
O     17.39634     10.43466     12.47271        -0.215620     -0.033669     -0.676884
O     10.43466      8.50569      3.58206        -0.035826      0.561873      0.158739
O     10.54374      8.50569     17.39634        -0.087742      0.789047     -0.224940
O     10.54374     12.47271      3.58206         0.077959     -0.942163      0.105085
O     10.43466     12.47271     17.39634         0.074110     -0.763344     -0.199544
O      8.50569      3.58206     10.43466         0.570194      0.143347     -0.048421
O      8.50569     17.39634     10.54374         0.553873     -0.151049     -0.000467
O     12.47271      3.58206     10.54374        -0.685175      0.152963      0.021963
O     12.47271     17.39634     10.43466        -0.409988     -0.041954     -0.036362
O     11.90042     11.90042     19.56718        -0.314470     -0.295240      0.236530
O     19.56718     19.56718     19.56718         0.310421      0.304098      0.216963
O     19.56718     11.90042     11.90042         0.328973     -0.269365     -0.231607
O     11.90042     19.56718     11.90042        -0.258177      0.340659     -0.272558
O      9.45224      1.03696      9.45224        -0.019272      0.080298     -0.132415
O      1.03696      9.45224      9.45224         0.067735     -0.044810     -0.140901
O      1.03696      1.03696      1.03696         0.087486      0.121129      0.071006
O      9.45224      9.45224      1.03696        -0.072854     -0.063588      0.052609
Zr     10.48920      2.52580     10.48920        -0.048560     -0.207191      0.019910
Zr     10.48920     18.45260     10.48920        -0.018320      0.092357      0.187367
Zr     10.48920     10.48920      2.52580        -0.267366     -0.436196     -0.310507
Zr     10.48920     10.48920     18.45260         0.059171      0.032636      0.433664
Zr      2.52580     10.48920     10.48920        -0.226698      0.124504      0.035251
Zr     18.45260     10.48920     10.48920         0.179795     -0.013198     -0.024220
Pd     13.08738      8.55789      9.75722         0.058795     -0.030264     -0.032204
Pd      6.12933      9.67788     10.19313        -0.049440     -0.043852     -0.030427
Pd      6.96370     11.59921     11.76917         0.022007      0.021322      0.003183
Pd     12.32998     13.14215      7.36097        -0.034275      0.061708      0.081842
Pd     12.12544      7.77748      7.05098        -0.023546     -0.032686     -0.009099
Pd      8.47233      7.26347      6.90716        -0.000700     -0.040407     -0.034727
Pd     11.28520     11.39591      5.55271        -0.008305      0.039702      0.069907
Pd     14.53268      8.74938      7.47990         0.063319      0.031267     -0.075028
Pd      9.93944     11.81974      7.98397        -0.085045     -0.048098      0.089877
Pd      7.01262      7.10257     12.05650        -0.005095     -0.057863      0.043858
Pd      6.34989      7.48660      8.41720        -0.010340      0.009914      0.007233
Pd      7.21026      9.09641     13.71820         0.018047      0.000375     -0.100218
Pd     11.45435      6.38852      9.21925         0.030942      0.012555     -0.011502
Pd      9.97466      9.47541      6.65482        -0.018841      0.003529      0.014279
Pd      9.04788     14.02348      9.34664         0.066557     -0.093704      0.007461
Pd     10.83845      7.46447     11.44702        -0.010873      0.023835      0.094977
Pd     10.48128      9.12615      9.31775         0.084473      0.053718     -0.009689
Pd      9.50707     11.52411     10.59362        -0.084732      0.009543      0.004870
Pd      8.88038      7.11111      9.58974        -0.045809     -0.036662     -0.055442
Pd      9.19352      7.42550     13.47008        -0.051919      0.017923     -0.016796
Pd      8.54507      9.20357     11.32078        -0.017676     -0.033807      0.075240
Pd     12.27502     10.40037      7.84182         0.025226     -0.045063     -0.032981
Pd      7.31275     11.97896      9.14972         0.010479     -0.017588      0.000453
Pd      8.07140      9.57810      8.42553        -0.001315      0.023457      0.050212
Pd     14.03968      6.36394      8.49939        -0.019600      0.012960     -0.003742
Pd     13.11378      8.50593     12.39541        -0.018435      0.017909     -0.049352
Pd      8.97151     11.44049     13.39852        -0.045910      0.021649     -0.042958
Pd     13.87699     11.98424      9.13846         0.034856      0.090897     -0.068287
Pd     13.14809     11.17406     13.19602        -0.021369     -0.064090      0.015801
Pd     14.70314     10.36506     11.08374         0.007728     -0.028763     -0.064078
Pd     12.05926     10.79944     10.72034        -0.046501     -0.077151      0.051477
Pd     11.51564     13.32572      9.86365         0.005077     -0.034482     -0.107280
Pd     13.62321     13.18083     11.61994         0.020239     -0.036064     -0.018845
Pd     11.13153     12.79024     12.43313         0.014213     -0.048191      0.105938
Pd     11.19081     11.59055     14.90181         0.006410     -0.032672     -0.007517
Pd     10.85183      9.74251     12.82278        -0.025171     -0.024914      0.027037
Pd      9.55606      9.51787     15.20690        -0.041951     -0.045846     -0.036941
Pd      8.71205     13.72260     11.99959        -0.071254      0.010904      0.004573
