152
# total energy = -1110.39277130 eVH     10.35389      5.87395      7.64558        -0.387476     -0.130366      1.149150
H     10.62451     15.10445      7.64558         0.327831      0.077688      0.919746
H     10.62451      5.87395     13.33282        -0.318952     -0.676715     -1.338714
H     10.35389     15.10445     13.33282        -0.586399      0.428181     -0.333706
H      7.64558     10.35389      5.87395         0.558575     -0.521821     -0.101216
H      7.64558     10.62451     15.10445         0.384996     -0.233895      0.043580
H     13.33282     10.62451      5.87395        -0.580039      0.647460     -0.048445
H     13.33282     10.35389     15.10445        -0.525189      0.387354      0.153745
H      5.87395      7.64558     10.35389         0.149093      0.555538      0.027971
H     15.10445      7.64558     10.62451         0.428592      1.021915      0.284274
H      5.87395     13.33282     10.62451        -0.220891     -0.503452      0.362374
H     15.10445     13.33282     10.35389         0.027890     -0.299540     -0.379829
H      5.87395     10.35389      7.64558        -0.103731     -0.412421      1.488416
H     15.10445     10.62451      7.64558         0.219484      0.514561      1.327102
H      5.87395     10.62451     13.33282        -0.217532     -0.369651     -1.204713
H     15.10445     10.35389     13.33282         0.612438      1.001709     -1.533856
H     10.35389      7.64558      5.87395        -0.585069      0.530699     -0.173320
H     10.62451      7.64558     15.10445        -0.134000      0.450791      0.157879
H     10.62451     13.33282      5.87395         0.869419     -1.329018     -0.312770
H     10.35389     13.33282     15.10445         0.224770     -0.562434     -0.105869
H      7.64558      5.87395     10.35389         0.720095      0.163756     -0.173249
H      7.64558     15.10445     10.62451         1.979985      0.749091      0.223607
H     13.33282      5.87395     10.62451        -2.656524     -0.905924     -0.514653
H     13.33282     15.10445     10.35389        -0.878229     -0.056416     -0.252798
H     12.45634     12.45634     19.01126         0.271945      0.257927     -0.227351
H     19.01126     19.01126     19.01126        -0.266814     -0.254750     -0.238682
H     19.01126     12.45634     12.45634        -0.284067      0.281764      0.184895
H     12.45634     19.01126     12.45634         0.256454     -0.250620      0.235789
C     10.35284      5.61067      6.59456         0.076775     -0.483976     -1.203868
C     10.62556     15.36773      6.59456         0.191670      0.753803     -0.811908
C     10.62556      5.61067     14.38384         0.180723     -0.295651      1.785301
C     10.35284     15.36773     14.38384         0.085395      0.383827      1.792854
C      6.59456     10.35284      5.61067        -1.138808     -0.110730     -0.896381
C      6.59456     10.62556     15.36773        -0.701728     -0.094942      0.795321
C     14.38384     10.62556      5.61067         0.837777     -0.111692     -0.990369
C     14.38384     10.35284     15.36773         1.177760      0.168418      1.098680
C      5.61067      6.59456     10.35284        -0.668873     -0.900554     -0.188343
C     15.36773      6.59456     10.62556         2.009152     -0.321023     -0.187882
C      5.61067     14.38384     10.62556        -1.568017     -0.013464     -0.141987
C     15.36773     14.38384     10.35284         0.484813      0.090143      0.000382
C      5.61067     10.35284      6.59456        -0.274497      0.213305     -1.353613
C     15.36773     10.62556      6.59456         0.295983     -0.265768     -0.980133
C      5.61067     10.62556     14.38384        -0.255823      0.447018      1.457403
C     15.36773     10.35284     14.38384         0.004901     -0.488115      1.944902
C     10.35284      6.59456      5.61067        -0.159779     -0.847732     -0.698838
C     10.62556      6.59456     15.36773        -0.118407     -0.715929      1.045303
C     10.62556     14.38384      5.61067        -0.501454      1.987381     -0.752887
C     10.35284     14.38384     15.36773        -0.259475      1.358338      0.502332
C      6.59456      5.61067     10.35284        -0.988343     -0.410051      0.094156
C      6.59456     15.36773     10.62556        -1.256007      0.370244     -0.333036
C     14.38384      5.61067     10.62556         1.272092     -1.302939      0.216491
C     14.38384     15.36773     10.35284         0.458468      0.310860      0.086196
C     10.40319      3.19606      7.29314         0.001216      0.304791     -0.111483
C     10.35913      4.25547      6.23373         0.142275     -0.576525      0.016244
C      0.08601      7.29314      7.29314        -0.053442     -0.279736     -0.419777
C      0.13007      6.23373      6.23373        -0.123518      0.669633      0.017220
C      0.08601      3.19606      3.19606        -0.105711      1.662469      0.165638
C      0.13007      4.25547      4.25547        -0.097330     -0.392199     -1.206669
C     10.40319      7.29314      3.19606         0.015808     -0.449910      0.121694
C     10.35913      6.23373      4.25547         0.264192      0.086612     -0.535428
C      7.29314     10.40319      3.19606        -1.697221      0.011058      0.324772
C      6.23373     10.35913      4.25547         0.670276      0.081336     -0.623420
C      7.29314      0.08601      7.29314        -0.410452     -0.015437     -0.317302
C      6.23373      0.13007      6.23373         0.727050     -0.058527      0.245404
C      3.19606      0.08601      3.19606         0.661292     -0.018467      0.179887
C      4.25547      0.13007      4.25547        -0.356652     -0.085812     -0.571645
C      3.19606     10.40319      7.29314         0.350037      0.023535     -0.319391
C      4.25547     10.35913      6.23373        -0.741080      0.078535      0.362772
C      3.19606      7.29314     10.40319         0.285150     -0.202317     -0.006441
C      4.25547      6.23373     10.35913         0.042606      0.633451      0.091734
C      7.29314      7.29314      0.08601        -0.715972     -0.610244     -0.027605
C      6.23373      6.23373      0.13007         0.903028      1.124185     -0.065609
C      3.19606      3.19606      0.08601         0.823980      0.514410      0.001182
C      4.25547      4.25547      0.13007        -0.326684     -1.767390     -0.130130
C      7.29314      3.19606     10.40319        -0.324883      0.271054     -0.004435
C      6.23373      4.25547     10.35913         0.508275     -0.020852      0.231058
O     10.43466      3.58206      8.50569        -0.048668      0.187220      0.260011
O     10.54374     17.39634      8.50569         0.042239     -0.236412      0.486677
O     10.54374      3.58206     12.47271         0.083900     -0.075450     -0.022608
O     10.43466     17.39634     12.47271        -0.023167     -0.141579     -0.268653
O      8.50569     10.43466      3.58206         0.993165      0.189823      0.376829
O      8.50569     10.54374     17.39634         0.579629      0.084343     -0.229499
O     12.47271     10.54374      3.58206        -0.413701     -0.041008      0.181993
O     12.47271     10.43466     17.39634        -0.506515     -0.067554     -0.192882
O      3.58206      8.50569     10.43466         0.184409      0.423242     -0.028687
O     17.39634      8.50569     10.54374        -0.230548      0.712906      0.046356
O      3.58206     12.47271     10.54374         0.162162     -0.682298      0.026366
O     17.39634     12.47271     10.43466        -0.186708     -0.474912     -0.010290
O      3.58206     10.43466      8.50569         0.231198     -0.061706      0.406088
O     17.39634     10.54374      8.50569        -0.172016      0.037434      0.412759
O      3.58206     10.54374     12.47271         0.148243      0.021512     -0.303677
O     17.39634     10.43466     12.47271         0.081404     -0.051681     -0.070224
O     10.43466      8.50569      3.58206         0.005045      0.273562      0.183866
O     10.54374      8.50569     17.39634         0.069573      0.426375     -0.174206
O     10.54374     12.47271      3.58206        -0.222140     -0.974709      0.329690
O     10.43466     12.47271     17.39634        -0.082085     -0.450770     -0.245034
O      8.50569      3.58206     10.43466         0.488918      0.197470     -0.009862
O      8.50569     17.39634     10.54374         0.665113     -0.203517      0.022393
O     12.47271      3.58206     10.54374        -0.747410      0.280635      0.038258
O     12.47271     17.39634     10.43466        -0.432345     -0.205961     -0.043526
O     11.90042     11.90042     19.56718        -0.347230     -0.307229      0.261101
O     19.56718     19.56718     19.56718         0.324121      0.311707      0.284268
O     19.56718     11.90042     11.90042         0.274412     -0.273579     -0.138113
O     11.90042     19.56718     11.90042        -0.305282      0.283071     -0.233024
O      9.45224      1.03696      9.45224        -0.061414      0.073268     -0.044972
O      1.03696      9.45224      9.45224         0.035771     -0.075657     -0.069953
O      1.03696      1.03696      1.03696         0.063757      0.150280      0.095369
O      9.45224      9.45224      1.03696        -0.143633     -0.098710      0.095735
Zr     10.48920      2.52580     10.48920         0.164336     -0.173556     -0.168113
Zr     10.48920     18.45260     10.48920        -0.101631      0.187700     -0.050929
Zr     10.48920     10.48920      2.52580         0.344428     -0.310293     -0.205209
Zr     10.48920     10.48920     18.45260         0.015034     -0.088368      0.199880
Zr      2.52580     10.48920     10.48920        -0.072055      0.180021     -0.052410
Zr     18.45260     10.48920     10.48920         0.147227     -0.132993     -0.253042
Ir     12.03832     12.48334     10.45418        -0.004037      0.001086      0.004727
Ir     11.21954      7.41347     10.24120         0.014120     -0.001991     -0.018730
Ir      8.85798      7.34856     11.52115         0.004004     -0.016827     -0.011388
Ir      7.46016     11.64726      7.65715        -0.005258      0.005021      0.004607
Ir     11.59593     12.07130      7.11168        -0.000024     -0.003132     -0.004278
Ir     13.78619      8.99327      7.52007         0.000924     -0.003821     -0.004386
Ir     12.47076     13.95226      8.40612        -0.006075     -0.006426     -0.002689
Ir      9.74045     11.25393      5.53814         0.006413     -0.004122     -0.003277
Ir      9.07404     13.44072      7.07717        -0.005882     -0.009820      0.004137
Ir      9.26526      9.67330      7.49807         0.000310      0.010962     -0.014261
Ir     13.28632      7.03507     11.95969        -0.001425      0.000924      0.006175
Ir     13.64130      7.04194      9.10649         0.008407      0.009472     -0.008301
Ir     11.04533      7.59022     12.79697         0.002251     -0.002655     -0.017347
Ir     13.59711     11.56441      8.75041         0.002774      0.000871     -0.003574
Ir     11.50222      9.62010      6.21749        -0.006523     -0.007284     -0.004467
Ir      7.16250      9.14458      8.91886        -0.010518     -0.007163     -0.014451
Ir     14.06100     11.43999     11.64560        -0.004051      0.001499     -0.003250
Ir     11.66190      9.82444      8.85801        -0.005335     -0.017030     -0.013640
Ir      9.44450      9.49836     10.22367         0.018877      0.004564     -0.009801
Ir     13.88054      9.41328     10.16545         0.006546     -0.001065     -0.007965
Ir     13.83930      9.16291     12.87750         0.006195     -0.002866     -0.011085
Ir     11.70373      9.75806     11.53643         0.005224     -0.002779     -0.008545
Ir      9.91765     11.72754      8.96137         0.002270     -0.011284     -0.003033
Ir      9.11240      7.43396      8.76565         0.014707     -0.003473     -0.019231
Ir     11.64181      7.51958      7.71791         0.032523     -0.013658     -0.012340
Ir      9.25597      9.46511     13.00173         0.006976     -0.008088     -0.002244
Ir      7.50467     13.89890      8.99416         0.004478     -0.010006     -0.000266
Ir     10.86190     14.09748     11.95211        -0.003970     -0.005131      0.002018
Ir     10.11072     14.14379      9.51468        -0.001037     -0.003435     -0.004023
Ir      9.79038     11.67693     11.72256         0.008607     -0.012314     -0.004610
Ir      7.59078     11.55966     10.20571         0.003955      0.002915     -0.014850
Ir      8.34333     13.73163     11.58139        -0.006947      0.001928     -0.003241
Ir      7.52574     11.53858     12.82009        -0.007021     -0.006880      0.007094
Ir      9.77970     11.58724     14.34142         0.003734     -0.005101      0.005935
Ir     13.46375     13.88409     12.18525        -0.003307     -0.003091     -0.000941
Ir     11.98974     12.04166     13.07629         0.005177     -0.008445     -0.007867
Ir     11.58710      9.77681     14.17535         0.006256     -0.011734     -0.012654
Ir      7.15946      9.34350     11.47657        -0.014048     -0.008084      0.001613
