152
# total energy = -1024.33988824 eVH     10.35389      5.87395      7.64558         0.475571      0.036151      0.748598
H     10.62451     15.10445      7.64558         0.026154     -0.192648      0.602593
H     10.62451      5.87395     13.33282         0.099436      0.159966     -0.572259
H     10.35389     15.10445     13.33282        -0.442492     -0.046519     -0.768685
H      7.64558     10.35389      5.87395         0.339779      0.014600      0.166811
H      7.64558     10.62451     15.10445         0.898270     -0.306868     -0.001233
H     13.33282     10.62451      5.87395        -0.756246     -0.058043      0.156196
H     13.33282     10.35389     15.10445        -0.876848     -0.400888      0.202541
H      5.87395      7.64558     10.35389         0.198927      0.680319     -0.193637
H     15.10445      7.64558     10.62451        -0.139172      0.395253     -0.036094
H      5.87395     13.33282     10.62451         0.160000     -0.526421     -0.116309
H     15.10445     13.33282     10.35389        -0.086129     -1.185302      0.034788
H      5.87395     10.35389      7.64558         0.135858      0.147993      0.522361
H     15.10445     10.62451      7.64558         0.001495      0.112686      1.031429
H      5.87395     10.62451     13.33282         0.097624     -0.052142     -0.426537
H     15.10445     10.35389     13.33282        -0.133912     -0.169453     -0.517911
H     10.35389      7.64558      5.87395         0.060882      0.980940      0.231591
H     10.62451      7.64558     15.10445         0.006357      0.274529     -0.172027
H     10.62451     13.33282      5.87395        -0.097029     -0.414202      0.321623
H     10.35389     13.33282     15.10445        -0.450445     -0.623002     -0.013531
H      7.64558      5.87395     10.35389         0.487980      0.111058     -0.017327
H      7.64558     15.10445     10.62451         0.910799     -0.246714     -0.098005
H     13.33282      5.87395     10.62451        -0.586781      0.125959     -0.074072
H     13.33282     15.10445     10.35389        -0.604310     -0.055135      0.230652
H     12.45634     12.45634     19.01126         0.236284      0.277725     -0.235872
H     19.01126     19.01126     19.01126        -0.251278     -0.246968     -0.242755
H     19.01126     12.45634     12.45634        -0.264385      0.266454      0.220624
H     12.45634     19.01126     12.45634         0.234635     -0.265276      0.240211
C     10.35284      5.61067      6.59456        -0.196262     -0.650930      0.072288
C     10.62556     15.36773      6.59456        -0.031067      0.384028     -0.797236
C     10.62556      5.61067     14.38384        -0.007824     -0.060161      0.692723
C     10.35284     15.36773     14.38384         0.162376      0.719141      0.186722
C      6.59456     10.35284      5.61067        -0.351373     -0.021122     -0.287130
C      6.59456     10.62556     15.36773        -1.034368      0.318280      0.333041
C     14.38384     10.62556      5.61067         0.414640      0.342059     -0.642001
C     14.38384     10.35284     15.36773         0.999383     -0.001179      0.305856
C      5.61067      6.59456     10.35284        -0.363680     -0.404340      0.351134
C     15.36773      6.59456     10.62556         0.193303     -0.514376      0.024869
C      5.61067     14.38384     10.62556        -0.198333      0.591650      0.012965
C     15.36773     14.38384     10.35284         0.347456      0.051236     -0.162319
C      5.61067     10.35284      6.59456        -0.317156     -0.075449     -0.984489
C     15.36773     10.62556      6.59456         0.823860     -0.332373     -0.959840
C      5.61067     10.62556     14.38384        -0.465213      0.020989      0.278459
C     15.36773     10.35284     14.38384         0.661516     -0.095935      1.086847
C     10.35284      6.59456      5.61067        -0.247639     -0.576726     -0.884509
C     10.62556      6.59456     15.36773         0.053321     -0.280856      0.058410
C     10.62556     14.38384      5.61067         0.091849      1.201547     -0.430856
C     10.35284     14.38384     15.36773         0.237083      0.142017      0.709284
C      6.59456      5.61067     10.35284        -0.270749     -0.738570      0.101158
C      6.59456     15.36773     10.62556        -1.208058      0.268721      0.120303
C     14.38384      5.61067     10.62556         0.968445     -0.288451      0.029991
C     14.38384     15.36773     10.35284        -0.520019      0.779407     -0.387646
C     10.40319      3.19606      7.29314        -0.020741      0.847770     -0.396916
C     10.35913      4.25547      6.23373         0.053924     -0.484117      0.559109
C      0.08601      7.29314      7.29314        -0.019481     -0.463988     -0.348010
C      0.13007      6.23373      6.23373        -0.020538      0.017081      0.099285
C      0.08601      3.19606      3.19606         0.003850      1.248408      0.190108
C      0.13007      4.25547      4.25547        -0.049308     -0.217644     -0.211521
C     10.40319      7.29314      3.19606        -0.006892     -1.030610      0.381032
C     10.35913      6.23373      4.25547         0.031427      0.465246     -0.652642
C      7.29314     10.40319      3.19606        -0.339889      0.038932      0.744979
C      6.23373     10.35913      4.25547         0.185781      0.083998     -0.102593
C      7.29314      0.08601      7.29314        -0.605711     -0.023216     -0.266895
C      6.23373      0.13007      6.23373         0.383149     -0.076022      0.476548
C      3.19606      0.08601      3.19606         0.956456     -0.009274      0.292152
C      4.25547      0.13007      4.25547        -0.115800     -0.040230     -0.510784
C      3.19606     10.40319      7.29314         0.435253     -0.008866     -0.870896
C      4.25547     10.35913      6.23373        -0.267576      0.101363      0.253338
C      3.19606      7.29314     10.40319         0.498802     -1.321322     -0.043197
C      4.25547      6.23373     10.35913        -0.457778      0.790422      0.088317
C      7.29314      7.29314      0.08601        -0.400418     -0.221808     -0.004738
C      6.23373      6.23373      0.13007         0.159489      0.147081     -0.007406
C      3.19606      3.19606      0.08601         0.248291      0.261032     -0.018089
C      4.25547      4.25547      0.13007        -0.111874     -0.054212      0.014053
C      7.29314      3.19606     10.40319        -0.372969      0.661386      0.008631
C      6.23373      4.25547     10.35913         1.116812     -0.012813      0.035152
O     10.43466      3.58206      8.50569        -0.028396      0.051769      0.443764
O     10.54374     17.39634      8.50569        -0.005851     -0.094880      0.442616
O     10.54374      3.58206     12.47271         0.042287     -0.099943     -0.137294
O     10.43466     17.39634     12.47271        -0.057859     -0.050313     -0.474564
O      8.50569     10.43466      3.58206         0.306121     -0.032664     -0.034442
O      8.50569     10.54374     17.39634         0.690087      0.025596     -0.179049
O     12.47271     10.54374      3.58206        -0.763377     -0.040668      0.148759
O     12.47271     10.43466     17.39634        -0.369087     -0.025934     -0.003951
O      3.58206      8.50569     10.43466         0.150080      1.081057     -0.018448
O     17.39634      8.50569     10.54374        -0.092250      0.417568      0.060934
O      3.58206     12.47271     10.54374         0.068689     -0.405120      0.039056
O     17.39634     12.47271     10.43466        -0.162383     -0.688610     -0.002360
O      3.58206     10.43466      8.50569         0.045935     -0.072039      0.732274
O     17.39634     10.54374      8.50569        -0.068337      0.044929      0.342716
O      3.58206     10.54374     12.47271        -0.011650      0.032710     -0.269325
O     17.39634     10.43466     12.47271        -0.247060      0.010885     -0.715756
O     10.43466      8.50569      3.58206         0.114232      0.825821      0.197614
O     10.54374      8.50569     17.39634         0.036102      0.657938     -0.157387
O     10.54374     12.47271      3.58206        -0.003255     -1.014964      0.191972
O     10.43466     12.47271     17.39634        -0.028989     -0.903649     -0.202109
O      8.50569      3.58206     10.43466         0.541150      0.112780     -0.016879
O      8.50569     17.39634     10.54374         0.521062     -0.205713     -0.011716
O     12.47271      3.58206     10.54374        -0.466619      0.157020      0.056861
O     12.47271     17.39634     10.43466        -0.402200      0.029777     -0.007061
O     11.90042     11.90042     19.56718        -0.269181     -0.326759      0.256517
O     19.56718     19.56718     19.56718         0.281904      0.287950      0.285598
O     19.56718     11.90042     11.90042         0.296283     -0.302359     -0.201870
O     11.90042     19.56718     11.90042        -0.269299      0.283008     -0.247387
O      9.45224      1.03696      9.45224        -0.081673      0.048987     -0.057497
O      1.03696      9.45224      9.45224         0.037064     -0.162027     -0.117947
O      1.03696      1.03696      1.03696         0.013597      0.117547      0.206309
O      9.45224      9.45224      1.03696        -0.064926     -0.086249      0.124693
Zr     10.48920      2.52580     10.48920        -0.039740     -0.117527     -0.168388
Zr     10.48920     18.45260     10.48920         0.019873      0.223464     -0.027274
Zr     10.48920     10.48920      2.52580        -0.128748     -0.183210     -0.532384
Zr     10.48920     10.48920     18.45260        -0.039110      0.019323      0.465499
Zr      2.52580     10.48920     10.48920        -0.360634      0.294473      0.155530
Zr     18.45260     10.48920     10.48920         0.203690      0.047113     -0.223834
Pd      8.48747      9.84105     13.23985        -0.082566     -0.057515     -0.030750
Pd     10.52282      9.48710     10.22551         0.045733      0.002455     -0.027570
Pd     13.23902      8.72346     12.45991        -0.055810      0.033577      0.026499
Pd     10.40587     10.69811     15.07081        -0.045481      0.002000     -0.006216
Pd     12.91377     11.34909     13.50141        -0.000153     -0.022604      0.024995
Pd     14.88777     10.68468     11.32926         0.032995      0.000322      0.007538
Pd      6.84694      7.72251     12.38990         0.021717     -0.002088     -0.016609
Pd      9.21559      7.23862      9.52818         0.009111     -0.027839      0.005248
Pd      9.53039      7.56124     12.25308         0.001114      0.002084     -0.005341
Pd     11.74084      7.14578     10.87550         0.015862      0.000432     -0.004033
Pd     11.62199      7.83519      8.30117        -0.000842      0.026775      0.032445
Pd      7.15402     11.73000     11.57929         0.007277     -0.017163      0.007492
Pd      9.24156     14.32251      9.31929         0.023576      0.005808      0.004581
Pd      8.13556     12.38061     14.13954         0.032528     -0.030410     -0.041468
Pd     14.22127     14.22731      8.32969        -0.038588     -0.029507      0.034733
Pd     11.71798     13.34746      8.81540        -0.026934     -0.039513      0.000792
Pd     14.10076     11.65790      8.97605         0.036993     -0.042974      0.006719
Pd      8.72229     13.96363     12.08914         0.029763     -0.035574     -0.012724
Pd     12.20255     13.93961     13.95757         0.006691      0.036501      0.028026
Pd     11.37915     14.11049     11.33920         0.006687     -0.010194     -0.013747
Pd     14.00765     13.36029     12.08589         0.028455      0.010621     -0.004203
Pd     12.28078     11.55815     10.89241         0.003561     -0.010168     -0.045289
Pd     12.95543     12.63641      6.59729         0.012724     -0.010370      0.012951
Pd     13.95138      8.84337      7.57776        -0.011269      0.008660      0.012786
Pd      6.97417      8.47632      8.44943        -0.003009     -0.002109     -0.003326
Pd      5.55335     10.04844     10.12684         0.020434     -0.006242     -0.015418
Pd      9.39563      9.47379      7.51722         0.004007      0.010969     -0.004120
Pd      8.49348      6.98557      6.94025        -0.002209      0.008775     -0.043446
Pd      9.64751     11.94038     10.56205         0.058217      0.053024      0.065639
Pd     11.79850     10.63543      8.07023        -0.051015      0.006149     -0.000211
Pd     11.76627      8.95580      5.88775        -0.020178     -0.009946     -0.027934
Pd     10.55430     11.34065      5.76714         0.004741      0.003416     -0.002967
Ir     10.95616      9.72445     12.71424        -0.016367      0.006285      0.016968
Ir     13.17632      9.28922      9.95812        -0.042993     -0.009043     -0.009651
Ir     10.49430     12.17858     12.93099        -0.026663      0.035419     -0.074510
Ir      7.73166     11.02681      9.07520        -0.098349     -0.054470      0.044608
Ir      9.56852     12.08647      8.00096         0.059659      0.008690     -0.054618
Ir      8.04416      9.26916     10.76555        -0.053719     -0.072580      0.007534
