152
# total energy = -1023.44662185 eVH     10.35389      5.87395      7.64558         0.484363      0.081010      0.745251
H     10.62451     15.10445      7.64558        -0.028671     -0.138177      0.642212
H     10.62451      5.87395     13.33282         0.137512      0.156340     -0.627170
H     10.35389     15.10445     13.33282        -0.322248     -0.051220     -0.731241
H      7.64558     10.35389      5.87395         0.302931     -0.018766      0.183070
H      7.64558     10.62451     15.10445         0.981693     -0.390656      0.012215
H     13.33282     10.62451      5.87395        -0.745610     -0.007254      0.183308
H     13.33282     10.35389     15.10445        -0.656297     -0.207146      0.006807
H      5.87395      7.64558     10.35389         0.205883      0.846492     -0.117192
H     15.10445      7.64558     10.62451        -0.151948      0.404847     -0.057916
H      5.87395     13.33282     10.62451         0.180519     -0.473407     -0.069371
H     15.10445     13.33282     10.35389        -0.119104     -0.917258      0.098685
H      5.87395     10.35389      7.64558         0.143848      0.103405      0.439224
H     15.10445     10.62451      7.64558         0.099799      0.061405      1.158659
H      5.87395     10.62451     13.33282         0.120485     -0.037566     -0.377312
H     15.10445     10.35389     13.33282        -0.115527     -0.087912     -0.589622
H     10.35389      7.64558      5.87395        -0.058999      0.848728      0.221335
H     10.62451      7.64558     15.10445         0.011385      0.318390     -0.179786
H     10.62451     13.33282      5.87395        -0.031522     -0.555171      0.219110
H     10.35389     13.33282     15.10445        -0.653908     -0.868546     -0.036850
H      7.64558      5.87395     10.35389         0.465152      0.110095      0.037559
H      7.64558     15.10445     10.62451         0.790140     -0.283956      0.047725
H     13.33282      5.87395     10.62451        -0.451009      0.174456     -0.055086
H     13.33282     15.10445     10.35389        -0.619898     -0.081618      0.201250
H     12.45634     12.45634     19.01126         0.245261      0.279381     -0.226454
H     19.01126     19.01126     19.01126        -0.253047     -0.238277     -0.253483
H     19.01126     12.45634     12.45634        -0.245061      0.274197      0.229175
H     12.45634     19.01126     12.45634         0.228184     -0.262046      0.244740
C     10.35284      5.61067      6.59456        -0.216967     -0.496633      0.017988
C     10.62556     15.36773      6.59456         0.042842      0.412654     -0.884928
C     10.62556      5.61067     14.38384        -0.057702     -0.132329      0.752864
C     10.35284     15.36773     14.38384         0.053127      0.810186      0.326607
C      6.59456     10.35284      5.61067        -0.378851     -0.034679     -0.229400
C      6.59456     10.62556     15.36773        -1.111889      0.421874      0.430465
C     14.38384     10.62556      5.61067         0.373065      0.275006     -0.581214
C     14.38384     10.35284     15.36773         0.841580     -0.084937      0.389536
C      5.61067      6.59456     10.35284        -0.342497     -0.555859      0.380890
C     15.36773      6.59456     10.62556         0.166878     -0.508177      0.037412
C      5.61067     14.38384     10.62556        -0.108298      0.463610     -0.002564
C     15.36773     14.38384     10.35284         0.288682     -0.152736     -0.200167
C      5.61067     10.35284      6.59456        -0.268507     -0.029463     -0.788117
C     15.36773     10.62556      6.59456         0.673983     -0.328210     -1.322673
C      5.61067     10.62556     14.38384        -0.531062     -0.020679      0.189987
C     15.36773     10.35284     14.38384         0.642184     -0.126138      1.333713
C     10.35284      6.59456      5.61067        -0.247956     -0.563122     -0.690054
C     10.62556      6.59456     15.36773         0.037821     -0.330160      0.167388
C     10.62556     14.38384      5.61067         0.141056      1.087525     -0.431585
C     10.35284     14.38384     15.36773         0.078510      0.370619      0.785610
C      6.59456      5.61067     10.35284        -0.287244     -0.811412      0.069224
C      6.59456     15.36773     10.62556        -1.298683      0.337966      0.060208
C     14.38384      5.61067     10.62556         0.649714     -0.233245      0.014748
C     14.38384     15.36773     10.35284        -0.458639      0.643899     -0.368461
C     10.40319      3.19606      7.29314         0.019269      0.916662     -0.373834
C     10.35913      4.25547      6.23373         0.027668     -0.451662      0.615986
C      0.08601      7.29314      7.29314        -0.002865     -0.416183     -0.415052
C      0.13007      6.23373      6.23373         0.000447      0.050760      0.122061
C      0.08601      3.19606      3.19606        -0.015351      0.776243      0.176569
C      0.13007      4.25547      4.25547        -0.075033     -0.178893     -0.239297
C     10.40319      7.29314      3.19606         0.008362     -0.880437      0.507259
C     10.35913      6.23373      4.25547         0.030924      0.460539     -0.623687
C      7.29314     10.40319      3.19606        -0.374839      0.037122      0.891518
C      6.23373     10.35913      4.25547         0.220707      0.066007     -0.108603
C      7.29314      0.08601      7.29314        -0.412540     -0.030691     -0.283957
C      6.23373      0.13007      6.23373         0.451793     -0.056679      0.478836
C      3.19606      0.08601      3.19606         0.679656     -0.021870      0.440865
C      4.25547      0.13007      4.25547        -0.096585     -0.052922     -0.423050
C      3.19606     10.40319      7.29314         0.765624     -0.006197     -0.625452
C      4.25547     10.35913      6.23373        -0.208558      0.072514      0.168595
C      3.19606      7.29314     10.40319         0.526999     -1.291095     -0.032600
C      4.25547      6.23373     10.35913        -0.510254      0.826442      0.052289
C      7.29314      7.29314      0.08601        -0.551100     -0.234415     -0.016226
C      6.23373      6.23373      0.13007         0.176751      0.141797     -0.009744
C      3.19606      3.19606      0.08601         0.243026      0.316232     -0.024472
C      4.25547      4.25547      0.13007        -0.065700     -0.043436      0.008291
C      7.29314      3.19606     10.40319        -0.357118      0.718474      0.007561
C      6.23373      4.25547     10.35913         1.057441      0.049037      0.002259
O     10.43466      3.58206      8.50569        -0.042419      0.028784      0.404036
O     10.54374     17.39634      8.50569        -0.021810     -0.117185      0.497122
O     10.54374      3.58206     12.47271         0.048620      0.022523     -0.255235
O     10.43466     17.39634     12.47271        -0.040546     -0.087140     -0.559785
O      8.50569     10.43466      3.58206         0.358246     -0.024996     -0.025845
O      8.50569     10.54374     17.39634         0.517613      0.034266     -0.150724
O     12.47271     10.54374      3.58206        -0.625608     -0.020079      0.164858
O     12.47271     10.43466     17.39634        -0.718261     -0.019072     -0.106673
O      3.58206      8.50569     10.43466         0.166051      1.107852      0.005115
O     17.39634      8.50569     10.54374        -0.042817      0.368387      0.071156
O      3.58206     12.47271     10.54374         0.084100     -0.500348      0.033811
O     17.39634     12.47271     10.43466        -0.164368     -0.713231      0.012742
O      3.58206     10.43466      8.50569        -0.035074     -0.066925      0.487586
O     17.39634     10.54374      8.50569        -0.119841      0.043983      0.418361
O      3.58206     10.54374     12.47271         0.053273      0.006812     -0.450371
O     17.39634     10.43466     12.47271        -0.224428      0.041815     -0.754869
O     10.43466      8.50569      3.58206         0.074520      0.796691      0.197817
O     10.54374      8.50569     17.39634         0.072952      0.573338     -0.109188
O     10.54374     12.47271      3.58206        -0.021101     -0.814451      0.233919
O     10.43466     12.47271     17.39634         0.019208     -0.967554     -0.225208
O      8.50569      3.58206     10.43466         0.516540      0.091691     -0.022519
O      8.50569     17.39634     10.54374         0.626813     -0.232170     -0.028425
O     12.47271      3.58206     10.54374        -0.446522      0.134461      0.048441
O     12.47271     17.39634     10.43466        -0.435754      0.023326     -0.015233
O     11.90042     11.90042     19.56718        -0.267385     -0.329886      0.246532
O     19.56718     19.56718     19.56718         0.287687      0.273013      0.302778
O     19.56718     11.90042     11.90042         0.273362     -0.327439     -0.219462
O     11.90042     19.56718     11.90042        -0.271763      0.286075     -0.263898
O      9.45224      1.03696      9.45224        -0.084035      0.050414     -0.057389
O      1.03696      9.45224      9.45224         0.063970     -0.159182     -0.088248
O      1.03696      1.03696      1.03696         0.019040      0.057076      0.183042
O      9.45224      9.45224      1.03696        -0.052812     -0.083384      0.133414
Zr     10.48920      2.52580     10.48920        -0.032511     -0.075019     -0.092793
Zr     10.48920     18.45260     10.48920         0.084321      0.271658     -0.001515
Zr     10.48920     10.48920      2.52580         0.005127     -0.059430     -0.482701
Zr     10.48920     10.48920     18.45260        -0.233183     -0.013629      0.444968
Zr      2.52580     10.48920     10.48920        -0.402948      0.268197      0.085453
Zr     18.45260     10.48920     10.48920         0.215471      0.065444     -0.300612
Pd      8.71047      9.96865     13.40661         0.074502     -0.390547     -0.294016
Pd     10.53821      9.52502     10.39499         0.087016      0.670776      0.364265
Pd     13.59414      8.69442     12.56598        -0.245081     -0.053346     -0.128893
Pd     10.84560     10.71282     15.16584        -0.035742      0.048202     -0.503561
Pd     12.96583     11.29060     13.24996        -0.215756     -0.323265      0.209926
Pd     14.99418     10.73655     11.35650        -0.077963      0.225842     -0.364432
Pd      6.58229      7.86493     12.44439         0.249065      0.071463      0.061022
Pd      9.28352      7.21094      9.70525         0.031214     -0.035427     -0.012889
Pd      9.29601      7.46668     12.44553         0.034993     -0.044683      0.200100
Pd     11.68071      7.34687     11.22663         0.267395     -0.510762      0.152682
Pd     11.74069      7.82888      8.56286        -0.161004     -0.216389      0.083158
Pd      7.33681     11.74618     11.68454        -0.106004     -0.104774     -0.177962
Pd      9.29831     14.57374      9.54051        -0.233168      0.162197     -0.017679
Pd      8.09225     12.41700     14.26705         0.053225      0.165621      0.028088
Pd     14.16096     14.23212      8.30345        -0.069975     -0.144486      0.113709
Pd     11.60993     13.53907      8.84191         0.068968     -0.156119     -0.072310
Pd     14.16764     11.63055      8.91679        -0.281043      0.044152      0.059321
Pd      8.77301     13.95520     12.23565        -0.146773     -0.064430     -0.154277
Pd     12.13741     13.71530     14.17013         0.293709     -0.200076     -0.403684
Pd     11.37621     14.20442     11.50781         0.028008     -0.196073     -0.106211
Pd     13.95249     13.47950     12.21247         0.348375      0.373136     -0.079699
Pd     12.35834     11.84872     10.76916         0.120011     -0.457869      0.416746
Pd     12.74231     12.57974      6.68167         0.098302     -0.009380     -0.018607
Pd     13.99070      8.92788      7.72148        -0.057127      0.001031      0.067811
Pd      6.99023      8.45112      8.68063         0.040640     -0.087499     -0.223514
Pd      5.65824     10.07565     10.35397        -0.008928      0.103374      0.105876
Pd      9.40921      9.32646      7.76422        -0.024508      0.062573      0.096458
Pd      8.47481      6.92523      7.13988         0.038393     -0.227638     -0.221085
Pd      9.74298     12.02634     10.48543        -0.013435     -0.032839     -0.118092
Pd     11.65625     10.66780      8.26488         0.260706      0.448330     -0.009154
Pd     11.69728      8.97917      6.15660        -0.015162      0.233119     -0.072148
Pd     10.21716     11.29286      6.13991         0.109290     -0.168971     -0.655471
Ir     11.14478      9.37003     12.90617        -0.310153      0.840458     -0.218153
Ir     13.15922      9.41796     10.09821         0.169440      0.070922      0.171916
Ir     10.42247     12.03402     12.91415         0.477397     -0.488940     -0.113859
Ir      7.78883     10.94476      9.10856        -0.148319     -0.242961      0.271971
Ir      9.15872     12.48438      8.00258         0.246092      0.207230      0.869133
Ir      8.13471      9.26149     10.97146        -0.314505      0.270681     -0.169377
