8
# total energy = -53.48337779 eVC      1.14292     13.21379      0.00000         0.000000     -0.464753      0.000000
C      1.14292      4.07241     -0.00000        -0.000000      0.464753      0.000000
O      1.14292      5.26445      0.00000        -0.000000     -0.137191      0.000000
O      1.14292     12.02175     -0.00000        -0.000000      0.137191     -0.000000
O     -0.00000     13.98065      0.00000        -0.000000      0.207546      0.000000
O      0.00000      3.30555     -0.00000        -0.000000     -0.207546      0.000000
Ir     -0.00000      8.64310      0.00000        -0.000000      0.000000      0.000000
Ir     -0.00000      0.00000      0.00000        -0.000000      0.000000      0.000000
