35
# total energy = -301.58196203 eVC      6.68707     10.29567      7.65376        -0.003712      0.004284      0.003558
C      8.07377      9.94460      7.58056         0.012931     -0.008574      0.000840
C      9.41767      5.71077      7.65027         0.012335     -0.011127     -0.003140
C      1.46319      5.34654      7.67081        -0.012086      0.017658      0.002365
C      4.19531      0.76210      7.63627         0.003216     -0.001799      0.000110
C      2.80816      1.11261      7.56643        -0.009101      0.001664     -0.001809
C      0.70467      4.16482      7.64664        -0.001362      0.007175      0.005026
C      1.09043      2.78736      7.57290        -0.003812     -0.001980      0.000137
C      5.35798      1.54972      7.64582         0.020739     -0.005632     -0.005032
C      5.52426      9.50849      7.67467        -0.020515      0.001462      0.000807
C     10.17684      6.89250      7.64391        -0.002204     -0.010727     -0.000494
C      9.79180      8.27042      7.57551         0.014664     -0.000254     -0.002099
C      0.77686      6.57623      7.64882        -0.000323      0.000400      0.002797
C      1.26267      7.92294      7.57913        -0.007383      0.017506      0.000131
C     10.10443      4.48117      7.64279         0.003131      0.001301     -0.001669
C      9.61969      3.13469      7.56665         0.007044     -0.016767     -0.002018
C      4.27808     10.16437      7.65328         0.001672     -0.000526      0.003165
C      2.94397      9.64564      7.58076        -0.022931      0.004135      0.001568
C      6.60434      0.89358      7.63782        -0.007769     -0.002742     -0.001644
C      7.93841      1.41153      7.56353         0.018868     -0.004635     -0.001727
N      8.80884      0.32130      7.47567         0.002758      0.007301      0.000809
N      0.15191      8.76636      7.48612         0.005580      0.005262      0.001045
N      8.54130      8.70537      7.60176        -0.022736      0.003867     -0.000635
N      2.34093      2.35162      7.59486         0.015387      0.009043     -0.000257
N      2.07332     10.73519      7.48806        -0.003749     -0.008496      0.002226
N     10.73151      2.29177      7.48083        -0.009081     -0.008467      0.000487
N      2.57599      8.32304      7.59926        -0.011642      0.006759      0.001203
N      8.30656      2.73407      7.57936         0.007359     -0.005928     -0.004070
O      5.32850      2.87858      7.61661        -0.008643      0.000933     -0.010760
O      5.55358      8.17931      7.68339         0.006174     -0.000913      0.015324
O      8.08855      5.70779      7.61839         0.000220      0.007354     -0.010805
O      2.79250      5.34947      7.68359         0.005893     -0.004775      0.012905
Zr      6.53880      4.45874      7.57428        -0.011139      0.016377     -0.024014
Zr      4.34260      6.59890      7.69571         0.015777     -0.015658      0.014109
Zr      0.02668     10.81050      6.85432         0.004439     -0.003482      0.001564
