35
# total energy = -230.82772424 eVC      4.82955      9.04214      7.49840        -0.164060     -0.132780      0.000000
C      7.18275      2.97016      7.49840         0.164060      0.132780     -0.000000
C      2.97016      4.82955      7.49840         0.132780     -0.164060     -0.000000
C      9.04214      7.18275      7.49840        -0.132780      0.164060      0.000000
C      7.18275      9.04214      7.49840         0.164060     -0.132780     -0.000000
C      4.82955      2.97016      7.49840        -0.164060      0.132780      0.000000
C      9.04214      4.82955      7.49840        -0.132780     -0.164060      0.000000
C      2.97016      7.18275      7.49840         0.132780      0.164060      0.000000
C      8.47588      8.47588      7.49840        -0.236688     -0.236688     -0.000000
C      3.53642      3.53642      7.49840         0.236688      0.236688     -0.000000
C      3.53642      8.47588      7.49840         0.236688     -0.236688      0.000000
C      8.47588      3.53642      7.49840        -0.236688      0.236688     -0.000000
C     11.28556      0.72674      7.49840         0.203748     -0.203748      0.000000
C      0.72674     11.28556      7.49840        -0.203748      0.203748     -0.000000
C     11.28556     11.28556      7.49840         0.203748      0.203748     -0.000000
C      0.72674      0.72674      7.49840        -0.203748     -0.203748     -0.000000
N      6.00615      8.35467      7.49840         0.000000      0.006641     -0.000000
N      6.00615      3.65763      7.49840         0.000000     -0.006641     -0.000000
N      3.65763      6.00615      7.49840        -0.006641     -0.000000     -0.000000
N      8.35467      6.00615      7.49840         0.006641     -0.000000     -0.000000
O      4.71867     10.38031      7.49840        -0.112018     -0.069900      0.000000
O      7.29363      1.63199      7.49840         0.112018      0.069900     -0.000000
O      1.63199      4.71867      7.49840         0.069900     -0.112018     -0.000000
O     10.38031      7.29363      7.49840        -0.069900      0.112018      0.000000
O      7.29363     10.38031      7.49840         0.112018     -0.069900     -0.000000
O      4.71867      1.63199      7.49840        -0.112018      0.069900      0.000000
O     10.38031      4.71867      7.49840        -0.069900     -0.112018     -0.000000
O      1.63199      7.29363      7.49840         0.069900      0.112018     -0.000000
Au      9.91159      2.10071      7.49840         0.007189     -0.007189     -0.000000
Au      2.10071      9.91159      7.49840        -0.007189      0.007189     -0.000000
Au      9.91159      9.91159      7.49840         0.007189      0.007189     -0.000000
Au      2.10071      2.10071      7.49840        -0.007189     -0.007189     -0.000000
Au      6.00615      6.00615      7.49840         0.000000     -0.000000     -0.000000
Au      6.00615      0.00000      7.49840         0.000000     -0.000000     -0.000000
Au      0.00000      6.00615      7.49840         0.000000     -0.000000     -0.000000
