152
# total energy = -1004.25496400 eVH     10.35389      5.87395      7.64558        -0.210708      0.237550      0.635669
H     10.62451     15.10445      7.64558        -0.253463     -0.137876      0.692594
H     10.62451      5.87395     13.33282         0.473689      0.033165     -0.970086
H     10.35389     15.10445     13.33282         0.063645     -0.193319     -0.538433
H      7.64558     10.35389      5.87395         0.422745      0.068874      0.113120
H      7.64558     10.62451     15.10445         0.778121      0.582419     -0.029566
H     13.33282     10.62451      5.87395        -0.448382     -0.033836      0.285429
H     13.33282     10.35389     15.10445        -0.707346     -0.168588     -0.009749
H      5.87395      7.64558     10.35389         0.083821      1.886220      0.204234
H     15.10445      7.64558     10.62451        -0.097057      0.522685      0.151831
H      5.87395     13.33282     10.62451         0.211569     -0.736760      0.038867
H     15.10445     13.33282     10.35389         0.236182     -1.475307     -0.366466
H      5.87395     10.35389      7.64558         0.082092      0.069703      0.596227
H     15.10445     10.62451      7.64558        -0.191929      0.834359      1.339572
H      5.87395     10.62451     13.33282        -0.061840      0.445576     -1.318008
H     15.10445     10.35389     13.33282         0.124836     -0.150864     -0.745611
H     10.35389      7.64558      5.87395         0.239533      1.376521      0.164354
H     10.62451      7.64558     15.10445         0.543065      0.814564     -0.079028
H     10.62451     13.33282      5.87395        -0.576479     -0.822192      0.179297
H     10.35389     13.33282     15.10445        -0.148530     -0.533439     -0.301803
H      7.64558      5.87395     10.35389         1.112923     -0.277203     -0.120778
H      7.64558     15.10445     10.62451         0.739116     -0.208625     -0.029056
H     13.33282      5.87395     10.62451        -0.615231      0.115501      0.633525
H     13.33282     15.10445     10.35389        -0.384474     -0.033615     -0.136181
H     12.45634     12.45634     19.01126         0.274111      0.243080     -0.234605
H     19.01126     19.01126     19.01126        -0.267396     -0.272272     -0.213884
H     19.01126     12.45634     12.45634        -0.273442      0.253119      0.233263
H     12.45634     19.01126     12.45634         0.254709     -0.281238      0.228666
C     10.35284      5.61067      6.59456        -0.154135     -0.827653     -0.590950
C     10.62556     15.36773      6.59456         0.079879      0.362216     -0.275018
C     10.62556      5.61067     14.38384        -0.085025     -0.578960      0.660889
C     10.35284     15.36773     14.38384        -0.015416      0.240763      0.539513
C      6.59456     10.35284      5.61067        -0.681294      0.089815     -0.481113
C      6.59456     10.62556     15.36773        -0.987892      0.227257      0.734063
C     14.38384     10.62556      5.61067         0.834100      0.023451     -0.923360
C     14.38384     10.35284     15.36773         0.936327     -0.096048      0.463300
C      5.61067      6.59456     10.35284        -0.863480     -1.049193     -0.459923
C     15.36773      6.59456     10.62556         0.706829      0.028603     -0.244154
C      5.61067     14.38384     10.62556        -0.210016      0.858073     -0.011689
C     15.36773     14.38384     10.35284         0.294839      1.467475     -0.039879
C      5.61067     10.35284      6.59456        -0.287114      0.009925     -0.761744
C     15.36773     10.62556      6.59456         0.384885     -0.365473     -0.913324
C      5.61067     10.62556     14.38384        -0.351557     -0.005501      1.122530
C     15.36773     10.35284     14.38384         0.348121     -0.045131      0.860905
C     10.35284      6.59456      5.61067        -0.030286     -1.029368     -0.347719
C     10.62556      6.59456     15.36773         0.056447     -0.727876      0.560926
C     10.62556     14.38384      5.61067         0.107364      0.981117     -0.428828
C     10.35284     14.38384     15.36773        -0.024047      0.822156      0.414337
C      6.59456      5.61067     10.35284        -0.705412     -1.262293      0.143666
C      6.59456     15.36773     10.62556        -0.820437      0.146171      0.096168
C     14.38384      5.61067     10.62556        -0.067747     -0.514819     -0.380001
C     14.38384     15.36773     10.35284         0.093776      0.653299     -0.073187
C     10.40319      3.19606      7.29314         0.008427      0.660407     -0.823493
C     10.35913      4.25547      6.23373         0.014141     -0.535838      0.111973
C      0.08601      7.29314      7.29314        -0.023319     -1.019320     -0.260106
C      0.13007      6.23373      6.23373        -0.049042      0.398140      0.416950
C      0.08601      3.19606      3.19606         0.041708      1.145865      0.217270
C      0.13007      4.25547      4.25547        -0.001073     -0.417530     -0.430861
C     10.40319      7.29314      3.19606        -0.009453     -0.590768      0.213468
C     10.35913      6.23373      4.25547        -0.019086      0.128145     -0.698628
C      7.29314     10.40319      3.19606        -0.416320      0.019004      0.252209
C      6.23373     10.35913      4.25547         0.207864      0.062849     -0.093199
C      7.29314      0.08601      7.29314        -1.178933     -0.079575     -0.367055
C      6.23373      0.13007      6.23373         0.648422     -0.192841      0.356650
C      3.19606      0.08601      3.19606         1.186882     -0.015847      0.293115
C      4.25547      0.13007      4.25547        -0.575590     -0.155214     -0.232797
C      3.19606     10.40319      7.29314         0.548525      0.030971     -0.257019
C      4.25547     10.35913      6.23373        -0.215775      0.072429      0.196164
C      3.19606      7.29314     10.40319         0.297673     -0.561274      0.046152
C      4.25547      6.23373     10.35913        -1.018313      0.009080      0.165896
C      7.29314      7.29314      0.08601        -0.487275     -0.435286     -0.023106
C      6.23373      6.23373      0.13007         0.480703      0.305338      0.055266
C      3.19606      3.19606      0.08601         0.655717      0.452219     -0.023343
C      4.25547      4.25547      0.13007        -0.135882     -0.782337     -0.116578
C      7.29314      3.19606     10.40319        -0.398399      0.457493      0.052059
C      6.23373      4.25547     10.35913         0.611057     -0.713108      0.195606
O     10.43466      3.58206      8.50569         0.061348      0.204525      0.693898
O     10.54374     17.39634      8.50569         0.050192     -0.032422      0.304089
O     10.54374      3.58206     12.47271         0.005157     -0.040992     -0.229509
O     10.43466     17.39634     12.47271        -0.034933     -0.104877     -0.387866
O      8.50569     10.43466      3.58206         0.564637     -0.045517      0.143144
O      8.50569     10.54374     17.39634         0.866931     -0.084182     -0.165443
O     12.47271     10.54374      3.58206        -0.886897      0.142888      0.139594
O     12.47271     10.43466     17.39634        -0.617838      0.036515     -0.178275
O      3.58206      8.50569     10.43466         0.175203      0.661524     -0.030968
O     17.39634      8.50569     10.54374        -0.137232      0.625658      0.021800
O      3.58206     12.47271     10.54374         0.101382     -0.547576      0.052503
O     17.39634     12.47271     10.43466        -0.174150     -0.561415     -0.056469
O      3.58206     10.43466      8.50569         0.087683     -0.039649      0.388933
O     17.39634     10.54374      8.50569         0.052680      0.103705      0.326478
O      3.58206     10.54374     12.47271        -0.025332      0.031520     -0.237266
O     17.39634     10.43466     12.47271        -0.116419     -0.028479     -0.428326
O     10.43466      8.50569      3.58206        -0.041699      0.637652      0.182624
O     10.54374      8.50569     17.39634        -0.092284      0.809672     -0.166441
O     10.54374     12.47271      3.58206         0.118181     -0.937158      0.176621
O     10.43466     12.47271     17.39634         0.020097     -0.503639     -0.067585
O      8.50569      3.58206     10.43466         0.577177      0.152857     -0.052239
O      8.50569     17.39634     10.54374         0.600522     -0.167643      0.014102
O     12.47271      3.58206     10.54374        -0.750216      0.127898      0.012138
O     12.47271     17.39634     10.43466        -0.505550     -0.126504     -0.031567
O     11.90042     11.90042     19.56718        -0.326258     -0.263186      0.243845
O     19.56718     19.56718     19.56718         0.298924      0.324681      0.206165
O     19.56718     11.90042     11.90042         0.345715     -0.279196     -0.252790
O     11.90042     19.56718     11.90042        -0.280820      0.351603     -0.226666
O      9.45224      1.03696      9.45224        -0.029434      0.105894     -0.130976
O      1.03696      9.45224      9.45224         0.062413     -0.022579     -0.117328
O      1.03696      1.03696      1.03696         0.063784      0.098996      0.097101
O      9.45224      9.45224      1.03696        -0.036149     -0.026649      0.089968
Zr     10.48920      2.52580     10.48920        -0.095217     -0.256623      0.184389
Zr     10.48920     18.45260     10.48920         0.021073      0.056622      0.093333
Zr     10.48920     10.48920      2.52580        -0.319017     -0.248722     -0.390516
Zr     10.48920     10.48920     18.45260         0.182946     -0.013905      0.370492
Zr      2.52580     10.48920     10.48920        -0.135602     -0.049634     -0.068229
Zr     18.45260     10.48920     10.48920         0.102780     -0.054667      0.141718
Pd     12.68903      8.25614      9.72497         0.019773      0.040170     -0.008680
Pd      6.72152      9.61726     10.48910        -0.029738      0.003621     -0.022809
Pd      6.91929     11.78005     11.92920         0.028878      0.020332     -0.001594
Pd     12.23363     13.46557      7.27987         0.028650      0.013015     -0.007329
Pd     12.06459      7.89145      7.11138         0.029919      0.023943     -0.013386
Pd      8.51543      7.33996      6.94823         0.019538      0.000041     -0.012667
Pd     11.50501     11.44464      5.67616         0.007640      0.004373     -0.008694
Pd     14.46840      8.85544      7.80324        -0.008215     -0.000042      0.014805
Pd      9.85238     11.78217      7.86726         0.027290      0.030000      0.015754
Pd      7.07684      7.18418     11.97105        -0.006658     -0.006262     -0.008116
Pd      6.45815      7.67107      8.51434         0.005879     -0.017189     -0.015790
Pd      7.34629      9.27559     13.44947         0.003727     -0.016732      0.007753
Pd     11.38820      6.03492      9.22102         0.025277      0.012151      0.003184
Pd      9.89517      9.57045      6.33823         0.017801     -0.030674     -0.005446
Pd      9.13952     13.95245      9.30337        -0.025542      0.005373     -0.014551
Pd     10.92558      7.20924     11.52452         0.032130     -0.028234      0.007776
Pd     10.32384      9.06796      8.98588        -0.019163     -0.010091     -0.006048
Pd      9.28169     11.50965     10.45622        -0.008378     -0.005423      0.029058
Pd      8.90856      7.06030      9.63373        -0.027740      0.020358     -0.027127
Pd      9.08066      7.28402     13.62779         0.000865      0.006343      0.036787
Pd      9.08738      9.08648     11.42675        -0.005928      0.005129      0.023745
Pd     12.31178     10.59350      8.09441        -0.005660      0.004893     -0.011275
Pd      7.03265     12.07996      9.20952         0.060574     -0.030264     -0.008701
Pd      8.02548      9.81442      8.22196         0.013818     -0.003948      0.006528
Pd     14.02180      6.31927      8.48444        -0.015371      0.019798      0.009326
Pd     13.34688      8.33090     12.23821        -0.040409      0.024484      0.020712
Pd      9.18536     11.31019     13.19588        -0.019837      0.015699      0.014445
Pd     14.07190     12.41857      8.81670        -0.023530      0.000952     -0.007133
Pd     13.15605     10.91002     12.99107         0.033149     -0.004629      0.028915
Pd     14.27749     10.28397     10.41966         0.030628      0.007479      0.009308
Pd     11.64766     10.45108     10.86471         0.023506      0.020644     -0.025473
Pd     11.54797     12.96543      9.75733         0.008864     -0.011719     -0.013284
Pd     13.70104     12.90261     11.49311        -0.028989      0.016648     -0.002400
Pd     11.23468     12.71327     12.35320         0.008657     -0.006208      0.001745
Pd     11.30725     11.49767     14.81333         0.014229      0.008151      0.002776
Pd     11.07086      9.27759     13.24674        -0.028135      0.026424     -0.010447
Pd      9.45868      9.57199     15.30099        -0.013916     -0.004203      0.000898
Pd      8.85820     13.74608     11.97382        -0.022610     -0.000610      0.017567
