152
# total energy = -1060.29495239 eVH     10.35389      5.87395      7.64558        -0.184192      0.129967      1.001182
H     10.62451     15.10445      7.64558         0.262229     -0.089256      0.808303
H     10.62451      5.87395     13.33282        -0.276348      0.080398     -0.736596
H     10.35389     15.10445     13.33282         0.147058     -0.273939     -0.770131
H      7.64558     10.35389      5.87395         0.890802     -0.244915      0.205479
H      7.64558     10.62451     15.10445         0.266411     -0.003661     -0.064706
H     13.33282     10.62451      5.87395        -0.838176      0.129387      0.193166
H     13.33282     10.35389     15.10445        -0.290178     -0.056289     -0.050476
H      5.87395      7.64558     10.35389         0.096255      0.428448      0.000963
H     15.10445      7.64558     10.62451        -0.082255      0.488853      0.059870
H      5.87395     13.33282     10.62451         0.020449     -0.945072      0.108042
H     15.10445     13.33282     10.35389        -0.156760     -0.370149      0.019092
H      5.87395     10.35389      7.64558         0.317854      0.053824      0.365205
H     15.10445     10.62451      7.64558        -0.122193     -0.136223      0.612934
H      5.87395     10.62451     13.33282        -0.046128      0.423289     -0.664916
H     15.10445     10.35389     13.33282         0.152259     -0.466281     -0.923222
H     10.35389      7.64558      5.87395         0.011634      0.481210      0.332965
H     10.62451      7.64558     15.10445         0.327397      0.789524     -0.043238
H     10.62451     13.33282      5.87395         0.090472     -0.569359      0.208650
H     10.35389     13.33282     15.10445         0.087585     -0.327544     -0.143990
H      7.64558      5.87395     10.35389         0.381547      0.124047      0.058155
H      7.64558     15.10445     10.62451         0.378830     -0.128821      0.203117
H     13.33282      5.87395     10.62451        -0.313570      0.133294     -0.008789
H     13.33282     15.10445     10.35389        -0.659206     -0.168945      0.202394
H     12.45634     12.45634     19.01126         0.263111      0.272606     -0.220863
H     19.01126     19.01126     19.01126        -0.254339     -0.265265     -0.238721
H     19.01126     12.45634     12.45634        -0.245739      0.271691      0.237310
H     12.45634     19.01126     12.45634         0.293116     -0.229843      0.236371
C     10.35284      5.61067      6.59456         0.359112     -0.376497     -1.304703
C     10.62556     15.36773      6.59456        -0.241047      0.664626     -0.705068
C     10.62556      5.61067     14.38384         0.357872     -0.266975      0.743256
C     10.35284     15.36773     14.38384        -0.183716      0.320934      0.942217
C      6.59456     10.35284      5.61067        -1.319590      0.027392     -0.194694
C      6.59456     10.62556     15.36773        -0.603584      0.064603      0.341361
C     14.38384     10.62556      5.61067         1.396413     -0.172858     -0.629133
C     14.38384     10.35284     15.36773         0.338466     -0.127898      0.382207
C      5.61067      6.59456     10.35284        -0.263048     -0.637324     -0.021974
C     15.36773      6.59456     10.62556         0.402029     -0.843004     -0.044194
C      5.61067     14.38384     10.62556        -0.161727      1.107019     -0.197909
C     15.36773     14.38384     10.35284         0.454740      0.731736     -0.048425
C      5.61067     10.35284      6.59456        -0.362305     -0.126380     -0.719342
C     15.36773     10.62556      6.59456         0.340181      0.123586     -0.581240
C      5.61067     10.62556     14.38384        -0.325966     -0.149018      1.229009
C     15.36773     10.35284     14.38384         0.167647      0.205331      1.294348
C     10.35284      6.59456      5.61067        -0.064932     -0.681605     -0.441298
C     10.62556      6.59456     15.36773        -0.127381     -1.020442      0.370839
C     10.62556     14.38384      5.61067        -0.500398      0.393246     -0.730003
C     10.35284     14.38384     15.36773        -0.159186      0.643088      0.493511
C      6.59456      5.61067     10.35284        -0.549970     -0.326923      0.020040
C      6.59456     15.36773     10.62556        -0.288591      0.440059      0.084229
C     14.38384      5.61067     10.62556         0.437107     -0.318595      0.012956
C     14.38384     15.36773     10.35284         1.117904      0.427863     -0.116982
C     10.40319      3.19606      7.29314        -0.010243      0.910568     -0.363736
C     10.35913      4.25547      6.23373         0.015085     -0.334089      0.316193
C      0.08601      7.29314      7.29314        -0.017124     -0.474065     -0.515383
C      0.13007      6.23373      6.23373        -0.062041      0.803082      0.102662
C      0.08601      3.19606      3.19606        -0.008742      0.658384      0.248024
C      0.13007      4.25547      4.25547         0.066729     -0.258801     -0.558740
C     10.40319      7.29314      3.19606        -0.057534     -1.076603      0.709690
C     10.35913      6.23373      4.25547        -0.063671      0.332378     -0.187181
C      7.29314     10.40319      3.19606        -1.075645     -0.053879      0.231893
C      6.23373     10.35913      4.25547         0.380365      0.113203     -0.529122
C      7.29314      0.08601      7.29314        -0.636201      0.019196     -0.371034
C      6.23373      0.13007      6.23373         0.169130      0.096225      0.097901
C      3.19606      0.08601      3.19606         0.663873      0.008729      0.166848
C      4.25547      0.13007      4.25547        -0.195703     -0.080909     -0.328286
C      3.19606     10.40319      7.29314         0.515208     -0.029912     -0.954625
C      4.25547     10.35913      6.23373        -0.136326     -0.037199      0.160754
C      3.19606      7.29314     10.40319         0.687026     -0.376165      0.008990
C      4.25547      6.23373     10.35913        -0.119064      0.182296     -0.001277
C      7.29314      7.29314      0.08601        -0.455286     -0.289255     -0.011958
C      6.23373      6.23373      0.13007         0.161067      0.142263     -0.106699
C      3.19606      3.19606      0.08601         0.326504      0.536469     -0.016350
C      4.25547      4.25547      0.13007        -0.439925     -0.260528     -0.025885
C      7.29314      3.19606     10.40319        -0.291471      0.596678     -0.003009
C      6.23373      4.25547     10.35913         0.008266     -0.133586      0.019476
O     10.43466      3.58206      8.50569        -0.030610      0.039026      0.246749
O     10.54374     17.39634      8.50569         0.055107     -0.091772      0.537616
O     10.54374      3.58206     12.47271         0.032313      0.110774     -0.409937
O     10.43466     17.39634     12.47271         0.091989     -0.059595     -0.472972
O      8.50569     10.43466      3.58206         0.711735     -0.067071      0.024773
O      8.50569     10.54374     17.39634         0.687209      0.070469     -0.107560
O     12.47271     10.54374      3.58206        -0.619458      0.129567      0.211111
O     12.47271     10.43466     17.39634        -0.369107      0.001196      0.028286
O      3.58206      8.50569     10.43466         0.019446      0.422268     -0.069729
O     17.39634      8.50569     10.54374        -0.056929      0.440770      0.059214
O      3.58206     12.47271     10.54374         0.116950     -0.618960     -0.001030
O     17.39634     12.47271     10.43466        -0.204484     -0.742093     -0.032792
O      3.58206     10.43466      8.50569         0.195181     -0.043208      0.785614
O     17.39634     10.54374      8.50569        -0.007661      0.061734      0.374268
O      3.58206     10.54374     12.47271         0.002018      0.000382     -0.279646
O     17.39634     10.43466     12.47271         0.011612     -0.009912     -0.267574
O     10.43466      8.50569      3.58206        -0.110377      0.522387     -0.090225
O     10.54374      8.50569     17.39634         0.059662      0.558686     -0.072525
O     10.54374     12.47271      3.58206         0.097791     -0.593534      0.120710
O     10.43466     12.47271     17.39634        -0.044092     -0.824890     -0.317652
O      8.50569      3.58206     10.43466         0.400114      0.026104     -0.056065
O      8.50569     17.39634     10.54374         0.647038     -0.154901      0.037218
O     12.47271      3.58206     10.54374        -0.526837      0.117499      0.021979
O     12.47271     17.39634     10.43466        -0.660920     -0.124184      0.049880
O     11.90042     11.90042     19.56718        -0.274508     -0.294214      0.214232
O     19.56718     19.56718     19.56718         0.313756      0.312160      0.289236
O     19.56718     11.90042     11.90042         0.279110     -0.320122     -0.241454
O     11.90042     19.56718     11.90042        -0.314471      0.221588     -0.208108
O      9.45224      1.03696      9.45224        -0.092033      0.118137     -0.063780
O      1.03696      9.45224      9.45224         0.130719     -0.131959     -0.055626
O      1.03696      1.03696      1.03696         0.090248      0.071047      0.077451
O      9.45224      9.45224      1.03696        -0.072231     -0.138102      0.127105
Zr     10.48920      2.52580     10.48920         0.041277     -0.134488      0.164686
Zr     10.48920     18.45260     10.48920        -0.192638      0.263965     -0.338973
Zr     10.48920     10.48920      2.52580         0.127953      0.360069     -0.292737
Zr     10.48920     10.48920     18.45260        -0.087561     -0.248404      0.312578
Zr      2.52580     10.48920     10.48920        -0.271911      0.107372      0.273639
Zr     18.45260     10.48920     10.48920         0.179222     -0.144905     -0.043997
Pd      9.36270     14.42409      9.19125        -0.013987     -0.051842      0.105561
Pd      8.62677     13.62732     13.14851        -0.023885      0.033186     -0.031200
Pd     12.07132     14.39217      8.79872        -0.113383     -0.039921      0.013017
Pd     12.61584     12.83145     10.79131        -0.121363      0.079795     -0.035795
Pd     12.15149      7.17621     12.66644        -0.090802     -0.104611      0.018468
Pd     11.12914     15.00909     11.38575        -0.073416      0.010775     -0.000889
Pd      9.90397     12.70645     10.97428         0.046354      0.004881      0.079701
Pd     13.51347     12.24225      8.00570         0.100027     -0.048596      0.032044
Pd     11.54522     11.60412      6.12559        -0.069106      0.093303     -0.083859
Pd      7.91071      8.26179      7.47713         0.038398     -0.017843      0.090367
Pd      8.70426     11.74769      6.84681        -0.002196      0.059030      0.028732
Pd     10.20912      9.43297      8.19533         0.004519      0.087088     -0.022175
Pd      8.46300     14.45139      6.71265        -0.005781      0.005007     -0.079708
Pd     12.33965      9.12628      6.74728         0.058523      0.021338      0.121554
Pd      9.77910      9.66976      5.56417         0.001928     -0.099220      0.026115
Pd      6.89105      9.47267     12.16881        -0.037301      0.009547     -0.023871
Pd     12.24718      6.77394      8.01864        -0.008407     -0.084728     -0.124445
Pd      5.92228     10.53677      9.70849        -0.088762     -0.058746      0.082519
Pd      7.51485      7.19047     13.33671         0.046265     -0.076928      0.059170
Ir     11.63408      9.73053     13.08732         0.078001     -0.057412     -0.020552
Ir     13.49671      9.12129     11.51631        -0.092552      0.087094     -0.021879
Ir      9.37084      8.82999     14.03323        -0.187272     -0.140312     -0.014906
Ir     10.47812     10.84905     15.08911        -0.022058     -0.028743      0.067420
Ir      7.28454     12.00019     11.40257         0.193398     -0.032769      0.026575
Ir     14.58526     10.99582     10.25102        -0.051167      0.048776      0.151418
Ir     12.18076     10.56467      9.56340         0.154706     -0.192910      0.064754
Ir      8.90445     11.02637     12.99610        -0.144085      0.235119     -0.221142
Ir     10.11219      9.95001     11.06460        -0.012961      0.017199     -0.146542
Ir     13.56709     11.43021     12.63933        -0.034683     -0.081448      0.049760
Ir     11.27083     12.25718     13.09504         0.131456      0.041503      0.106352
Ir      8.48007     11.12243      9.33739        -0.123728      0.242668     -0.070972
Ir     11.59114      8.01296     10.18663         0.111019      0.085097     -0.193751
Ir      7.22541     13.06648      8.68587         0.005029      0.103959     -0.057640
Ir      9.54456      6.94498      9.24007        -0.008893      0.026443      0.073561
Ir      8.03835      8.77205     10.01749        -0.044884      0.035069      0.023594
Ir     10.71860     12.14518      8.48650        -0.096708      0.024131     -0.026452
Ir      9.50268      7.63842     11.75436         0.053618     -0.113872      0.062510
Ir     13.77985      8.75275      8.94981        -0.072714      0.038592      0.102920
