152
# total energy = -1024.11968771 eVH     10.35389      5.87395      7.64558         0.557097      0.061501      0.793537
H     10.62451     15.10445      7.64558         0.012147     -0.167395      0.550519
H     10.62451      5.87395     13.33282         0.145171      0.157789     -0.652859
H     10.35389     15.10445     13.33282        -0.334072     -0.066753     -0.713367
H      7.64558     10.35389      5.87395         0.322077     -0.012360      0.188477
H      7.64558     10.62451     15.10445         0.990447     -0.377212      0.007010
H     13.33282     10.62451      5.87395        -0.746342     -0.003440      0.183170
H     13.33282     10.35389     15.10445        -0.855676     -0.354923      0.170231
H      5.87395      7.64558     10.35389         0.212591      0.681088     -0.037013
H     15.10445      7.64558     10.62451        -0.146106      0.405132     -0.043664
H      5.87395     13.33282     10.62451         0.173929     -0.492025     -0.085236
H     15.10445     13.33282     10.35389        -0.112280     -1.100365      0.014818
H      5.87395     10.35389      7.64558         0.147868      0.107152      0.459312
H     15.10445     10.62451      7.64558         0.063656      0.110824      1.076713
H      5.87395     10.62451     13.33282         0.103535     -0.029476     -0.388534
H     15.10445     10.35389     13.33282        -0.077353     -0.149722     -0.635574
H     10.35389      7.64558      5.87395         0.084536      0.865828      0.206472
H     10.62451      7.64558     15.10445         0.016385      0.288670     -0.177660
H     10.62451     13.33282      5.87395        -0.051511     -0.552763      0.264710
H     10.35389     13.33282     15.10445        -0.502790     -0.703223     -0.049717
H      7.64558      5.87395     10.35389         0.460931      0.115420      0.052281
H      7.64558     15.10445     10.62451         0.833516     -0.282605      0.022484
H     13.33282      5.87395     10.62451        -0.507517      0.170863     -0.066612
H     13.33282     15.10445     10.35389        -0.633400     -0.055858      0.198154
H     12.45634     12.45634     19.01126         0.240529      0.279637     -0.230305
H     19.01126     19.01126     19.01126        -0.254576     -0.239423     -0.249804
H     19.01126     12.45634     12.45634        -0.253114      0.273326      0.223483
H     12.45634     19.01126     12.45634         0.227248     -0.262914      0.243852
C     10.35284      5.61067      6.59456        -0.161895     -0.599050      0.053870
C     10.62556     15.36773      6.59456         0.006886      0.431271     -0.753745
C     10.62556      5.61067     14.38384        -0.045724     -0.104315      0.781159
C     10.35284     15.36773     14.38384         0.123351      0.696589      0.230568
C      6.59456     10.35284      5.61067        -0.383560     -0.031142     -0.243834
C      6.59456     10.62556     15.36773        -1.079554      0.396671      0.406101
C     14.38384     10.62556      5.61067         0.402170      0.291033     -0.587188
C     14.38384     10.35284     15.36773         1.001877     -0.038387      0.406888
C      5.61067      6.59456     10.35284        -0.377166     -0.490109      0.253409
C     15.36773      6.59456     10.62556         0.181927     -0.528704      0.027610
C      5.61067     14.38384     10.62556        -0.131296      0.498051     -0.001789
C     15.36773     14.38384     10.35284         0.356479     -0.061544     -0.143036
C      5.61067     10.35284      6.59456        -0.276475     -0.051395     -0.821608
C     15.36773     10.62556      6.59456         0.694902     -0.324125     -1.157921
C      5.61067     10.62556     14.38384        -0.538356     -0.017097      0.206006
C     15.36773     10.35284     14.38384         0.665662     -0.126324      1.144009
C     10.35284      6.59456      5.61067        -0.261259     -0.438506     -0.778554
C     10.62556      6.59456     15.36773         0.050837     -0.289404      0.121984
C     10.62556     14.38384      5.61067         0.153523      1.126047     -0.410133
C     10.35284     14.38384     15.36773         0.204495      0.204307      0.664130
C      6.59456      5.61067     10.35284        -0.342317     -0.758818      0.058872
C      6.59456     15.36773     10.62556        -1.273460      0.314176      0.067629
C     14.38384      5.61067     10.62556         0.750613     -0.252843      0.017712
C     14.38384     15.36773     10.35284        -0.533529      0.726796     -0.326353
C     10.40319      3.19606      7.29314        -0.008449      0.870722     -0.394890
C     10.35913      4.25547      6.23373         0.032597     -0.513906      0.561345
C      0.08601      7.29314      7.29314        -0.007762     -0.478791     -0.398971
C      0.13007      6.23373      6.23373        -0.016162      0.025015      0.097863
C      0.08601      3.19606      3.19606        -0.018943      0.996516      0.186693
C      0.13007      4.25547      4.25547        -0.066646     -0.208642     -0.246554
C     10.40319      7.29314      3.19606        -0.006736     -0.913096      0.471240
C     10.35913      6.23373      4.25547         0.021897      0.450974     -0.633365
C      7.29314     10.40319      3.19606        -0.443573      0.043155      0.834641
C      6.23373     10.35913      4.25547         0.247367      0.092363     -0.116407
C      7.29314      0.08601      7.29314        -0.456993     -0.025013     -0.259164
C      6.23373      0.13007      6.23373         0.417054     -0.062883      0.470952
C      3.19606      0.08601      3.19606         0.738278     -0.018294      0.381250
C      4.25547      0.13007      4.25547        -0.107440     -0.053253     -0.432874
C      3.19606     10.40319      7.29314         0.656283     -0.002512     -0.692773
C      4.25547     10.35913      6.23373        -0.249127      0.108680      0.229451
C      3.19606      7.29314     10.40319         0.505763     -1.301136     -0.033071
C      4.25547      6.23373     10.35913        -0.405126      0.846059      0.044584
C      7.29314      7.29314      0.08601        -0.526293     -0.234108     -0.013501
C      6.23373      6.23373      0.13007         0.171954      0.146947     -0.012183
C      3.19606      3.19606      0.08601         0.245743      0.294103     -0.022812
C      4.25547      4.25547      0.13007        -0.073764     -0.042469      0.016351
C      7.29314      3.19606     10.40319        -0.362601      0.729588      0.017734
C      6.23373      4.25547     10.35913         1.118486      0.070238      0.007876
O     10.43466      3.58206      8.50569        -0.032668      0.039799      0.439894
O     10.54374     17.39634      8.50569        -0.021324     -0.097796      0.469276
O     10.54374      3.58206     12.47271         0.052719     -0.034993     -0.195684
O     10.43466     17.39634     12.47271        -0.045112     -0.075543     -0.542737
O      8.50569     10.43466      3.58206         0.390441     -0.015832     -0.019305
O      8.50569     10.54374     17.39634         0.563531      0.027491     -0.160439
O     12.47271     10.54374      3.58206        -0.658999     -0.024426      0.161414
O     12.47271     10.43466     17.39634        -0.605256     -0.028370     -0.079992
O      3.58206      8.50569     10.43466         0.176239      1.113790     -0.004779
O     17.39634      8.50569     10.54374        -0.049850      0.376877      0.071713
O      3.58206     12.47271     10.54374         0.076895     -0.469888      0.032479
O     17.39634     12.47271     10.43466        -0.158533     -0.727680      0.014715
O      3.58206     10.43466      8.50569         0.002927     -0.069923      0.567022
O     17.39634     10.54374      8.50569        -0.106811      0.040614      0.384525
O      3.58206     10.54374     12.47271         0.034600      0.013734     -0.385796
O     17.39634     10.43466     12.47271        -0.212309      0.023273     -0.723915
O     10.43466      8.50569      3.58206         0.081952      0.814566      0.192673
O     10.54374      8.50569     17.39634         0.067027      0.642643     -0.141120
O     10.54374     12.47271      3.58206        -0.046828     -0.941740      0.247393
O     10.43466     12.47271     17.39634         0.004020     -0.942247     -0.217262
O      8.50569      3.58206     10.43466         0.513616      0.087501     -0.023039
O      8.50569     17.39634     10.54374         0.613277     -0.240261     -0.034825
O     12.47271      3.58206     10.54374        -0.455928      0.139527      0.054026
O     12.47271     17.39634     10.43466        -0.413301      0.034125     -0.015111
O     11.90042     11.90042     19.56718        -0.268279     -0.333118      0.252659
O     19.56718     19.56718     19.56718         0.287733      0.274005      0.295398
O     19.56718     11.90042     11.90042         0.278714     -0.315757     -0.206199
O     11.90042     19.56718     11.90042        -0.272626      0.289527     -0.262851
O      9.45224      1.03696      9.45224        -0.079114      0.049628     -0.059135
O      1.03696      9.45224      9.45224         0.052265     -0.158428     -0.102469
O      1.03696      1.03696      1.03696         0.013638      0.078035      0.193841
O      9.45224      9.45224      1.03696        -0.056501     -0.082427      0.134597
Zr     10.48920      2.52580     10.48920        -0.023795     -0.085658     -0.144974
Zr     10.48920     18.45260     10.48920         0.078882      0.256001      0.017483
Zr     10.48920     10.48920      2.52580         0.014439     -0.150229     -0.528842
Zr     10.48920     10.48920     18.45260        -0.176184      0.038494      0.473656
Zr      2.52580     10.48920     10.48920        -0.376742      0.279403      0.114876
Zr     18.45260     10.48920     10.48920         0.208294      0.046816     -0.290730
Pd      8.59843      9.88210     13.33636         0.089739     -0.006337     -0.077171
Pd     10.53483      9.53391     10.32577         0.115874     -0.082683     -0.060106
Pd     13.44831      8.74433     12.52368         0.022019     -0.047843      0.002633
Pd     10.72768     10.65615     15.11275        -0.127559     -0.036072      0.028647
Pd     13.02040     11.30679     13.41311        -0.068122      0.027944      0.078361
Pd     14.99290     10.77832     11.27682        -0.037311     -0.008746      0.014559
Pd      6.71482      7.92374     12.54037         0.023399      0.003997      0.008048
Pd      9.27858      7.20879      9.65059        -0.010887     -0.030350     -0.005376
Pd      9.37706      7.47387     12.41742         0.011885     -0.013779     -0.026921
Pd     11.69027      7.24905     11.14499         0.060880      0.018838     -0.033590
Pd     11.69454      7.81254      8.49858        -0.049065      0.036988     -0.006794
Pd      7.26181     11.71329     11.62743        -0.020526      0.028074     -0.007318
Pd      9.28942     14.52300      9.50711        -0.008206     -0.053692     -0.051033
Pd      8.11156     12.38078     14.22766         0.113779      0.066401     -0.039578
Pd     14.16008     14.20468      8.33947         0.029888      0.020124     -0.016103
Pd     11.66102     13.43413      8.89058         0.029990     -0.001037      0.000564
Pd     14.05891     11.63177      8.92215         0.041836      0.033614      0.062036
Pd      8.74969     13.91595     12.19222         0.067229     -0.069884     -0.056583
Pd     12.19636     13.78378     14.05798         0.014410      0.080308     -0.009796
Pd     11.40928     14.08383     11.46442        -0.001331      0.044784     -0.010432
Pd     14.05953     13.49602     12.15799        -0.030271     -0.108062      0.025652
Pd     12.35853     11.64919     10.92400         0.002716      0.046550     -0.115854
Pd     12.80146     12.62989      6.63996        -0.033814     -0.022279     -0.006347
Pd     13.94019      8.90157      7.68214         0.039039      0.047946     -0.025377
Pd      7.00090      8.42048      8.56865        -0.028733      0.053651      0.008163
Pd      5.62957     10.06178     10.27021         0.003195     -0.053866     -0.054920
Pd      9.40817      9.34480      7.68496        -0.023305      0.132822     -0.047684
Pd      8.49111      6.86723      7.05298        -0.040478      0.058855     -0.037073
Pd      9.72700     11.98159     10.55636         0.022165      0.030015      0.091730
Pd     11.64665     10.73095      8.20001        -0.050961     -0.052266     -0.009376
Pd     11.70190      9.03844      6.09480        -0.036750     -0.002191     -0.062793
Pd     10.23596     11.30903      5.93804         0.033422      0.032306      0.009290
Ir     11.05308      9.53321     12.77757         0.042263      0.090121      0.113376
Ir     13.18730      9.34599     10.06005        -0.064166      0.000412     -0.089330
Ir     10.48676     12.02049     12.94658         0.023947      0.001238     -0.035969
Ir      7.80059     10.95347      9.10449        -0.335163     -0.318639      0.201804
Ir      9.36847     12.34671      8.06797         0.191292      0.056663     -0.267778
Ir      8.10751      9.23437     10.87881        -0.174231      0.064333     -0.074070
