152
# total energy = -1023.30368903 eVH     10.35389      5.87395      7.64558         0.487600      0.082392      0.711456
H     10.62451     15.10445      7.64558        -0.097446     -0.073231      0.786419
H     10.62451      5.87395     13.33282         0.147496      0.131255     -0.635031
H     10.35389     15.10445     13.33282        -0.192380     -0.111839     -0.551778
H      7.64558     10.35389      5.87395         0.312293     -0.021644      0.194163
H      7.64558     10.62451     15.10445         0.672816     -0.227801     -0.125619
H     13.33282     10.62451      5.87395        -0.757902     -0.128579      0.202985
H     13.33282     10.35389     15.10445        -0.468891     -0.118555     -0.045373
H      5.87395      7.64558     10.35389         0.212306      1.079241     -0.249909
H     15.10445      7.64558     10.62451        -0.171904      0.459537     -0.111291
H      5.87395     13.33282     10.62451         0.162595     -0.433520     -0.067717
H     15.10445     13.33282     10.35389        -0.127393     -0.915198      0.017516
H      5.87395     10.35389      7.64558         0.136201      0.095216      0.462811
H     15.10445     10.62451      7.64558         0.094172      0.007282      1.095885
H      5.87395     10.62451     13.33282         0.188740     -0.035403     -0.393454
H     15.10445     10.35389     13.33282        -0.112229     -0.058782     -0.568409
H     10.35389      7.64558      5.87395         0.116429      0.888460      0.193011
H     10.62451      7.64558     15.10445        -0.002195      0.475987     -0.167399
H     10.62451     13.33282      5.87395        -0.024887     -0.597400      0.232164
H     10.35389     13.33282     15.10445        -0.321602     -0.881512     -0.115940
H      7.64558      5.87395     10.35389         0.439524      0.096649     -0.045741
H      7.64558     15.10445     10.62451         0.860790     -0.277101      0.040700
H     13.33282      5.87395     10.62451        -0.454159      0.183487     -0.065500
H     13.33282     15.10445     10.35389        -0.655351     -0.095421      0.163536
H     12.45634     12.45634     19.01126         0.251980      0.265351     -0.229367
H     19.01126     19.01126     19.01126        -0.251486     -0.233393     -0.260747
H     19.01126     12.45634     12.45634        -0.238401      0.272934      0.236982
H     12.45634     19.01126     12.45634         0.224129     -0.264777      0.249807
C     10.35284      5.61067      6.59456        -0.196389     -0.375603     -0.017415
C     10.62556     15.36773      6.59456         0.060192      0.384007     -1.161329
C     10.62556      5.61067     14.38384        -0.055603     -0.225077      0.797482
C     10.35284     15.36773     14.38384         0.055771      0.879813      0.385868
C      6.59456     10.35284      5.61067        -0.375685     -0.036754     -0.179732
C      6.59456     10.62556     15.36773        -0.868841      0.217352      0.378127
C     14.38384     10.62556      5.61067         0.436623      0.291099     -0.511459
C     14.38384     10.35284     15.36773         0.799187     -0.120818      0.443530
C      5.61067      6.59456     10.35284        -0.310190     -0.644329      0.420805
C     15.36773      6.59456     10.62556         0.171962     -0.522138      0.069988
C      5.61067     14.38384     10.62556        -0.145719      0.400996     -0.022477
C     15.36773     14.38384     10.35284         0.390535     -0.055467     -0.115480
C      5.61067     10.35284      6.59456        -0.256609     -0.017162     -0.782972
C     15.36773     10.62556      6.59456         0.603670     -0.284186     -1.336921
C      5.61067     10.62556     14.38384        -0.356383      0.001684      0.421531
C     15.36773     10.35284     14.38384         0.509525     -0.168911      1.155013
C     10.35284      6.59456      5.61067        -0.172152     -0.496018     -0.451334
C     10.62556      6.59456     15.36773         0.049860     -0.569246      0.256211
C     10.62556     14.38384      5.61067         0.117302      1.023380     -0.480386
C     10.35284     14.38384     15.36773         0.238697      0.569724      0.560344
C      6.59456      5.61067     10.35284        -0.106214     -0.808176      0.071815
C      6.59456     15.36773     10.62556        -1.506749      0.400945      0.102581
C     14.38384      5.61067     10.62556         0.652852     -0.267543     -0.012714
C     14.38384     15.36773     10.35284        -0.437367      0.682783     -0.315477
C     10.40319      3.19606      7.29314         0.007790      0.858940     -0.303955
C     10.35913      4.25547      6.23373        -0.048664     -0.462990      0.526928
C      0.08601      7.29314      7.29314        -0.007394     -0.278356     -0.487496
C      0.13007      6.23373      6.23373         0.024648      0.121806      0.194522
C      0.08601      3.19606      3.19606        -0.012220      0.702135      0.196250
C      0.13007      4.25547      4.25547        -0.090069     -0.185662     -0.206774
C     10.40319      7.29314      3.19606        -0.006696     -0.677926      0.553512
C     10.35913      6.23373      4.25547        -0.035661      0.296563     -0.613652
C      7.29314     10.40319      3.19606        -0.347080      0.028503      0.918870
C      6.23373     10.35913      4.25547         0.183858      0.033791     -0.123308
C      7.29314      0.08601      7.29314        -0.321270     -0.040324     -0.295534
C      6.23373      0.13007      6.23373         0.343892     -0.054743      0.338975
C      3.19606      0.08601      3.19606         0.550044     -0.035348      0.686454
C      4.25547      0.13007      4.25547        -0.091573     -0.036440     -0.382776
C      3.19606     10.40319      7.29314         0.727373      0.000881     -0.412546
C      4.25547     10.35913      6.23373        -0.165428      0.037337      0.096760
C      3.19606      7.29314     10.40319         0.650713     -1.295709     -0.011968
C      4.25547      6.23373     10.35913        -0.635148      0.910631      0.083084
C      7.29314      7.29314      0.08601        -0.648635     -0.188462     -0.019497
C      6.23373      6.23373      0.13007         0.207953      0.201844      0.011720
C      3.19606      3.19606      0.08601         0.265680      0.290329     -0.021475
C      4.25547      4.25547      0.13007        -0.071891     -0.037971     -0.000767
C      7.29314      3.19606     10.40319        -0.364136      0.977307      0.014861
C      6.23373      4.25547     10.35913         1.063779     -0.020578      0.012674
O     10.43466      3.58206      8.50569        -0.043397      0.042041      0.384889
O     10.54374     17.39634      8.50569        -0.036236     -0.163929      0.571977
O     10.54374      3.58206     12.47271         0.051370      0.044968     -0.294901
O     10.43466     17.39634     12.47271        -0.012662     -0.132890     -0.622889
O      8.50569     10.43466      3.58206         0.365931     -0.024657     -0.024179
O      8.50569     10.54374     17.39634         0.478179      0.044952     -0.148396
O     12.47271     10.54374      3.58206        -0.501707      0.011631      0.088670
O     12.47271     10.43466     17.39634        -0.808831      0.000847     -0.195069
O      3.58206      8.50569     10.43466         0.117839      1.055724      0.015584
O     17.39634      8.50569     10.54374        -0.037976      0.323074      0.073678
O      3.58206     12.47271     10.54374         0.071642     -0.459871      0.049507
O     17.39634     12.47271     10.43466        -0.174209     -0.880270      0.051047
O      3.58206     10.43466      8.50569        -0.065097     -0.070986      0.321774
O     17.39634     10.54374      8.50569        -0.129397      0.042164      0.457442
O      3.58206     10.54374     12.47271         0.079375     -0.021339     -0.618447
O     17.39634     10.43466     12.47271        -0.182703      0.050900     -0.767918
O     10.43466      8.50569      3.58206         0.030830      0.667699      0.157975
O     10.54374      8.50569     17.39634         0.062611      0.464445     -0.088524
O     10.54374     12.47271      3.58206        -0.019839     -0.774664      0.239496
O     10.43466     12.47271     17.39634         0.034471     -0.871331     -0.244412
O      8.50569      3.58206     10.43466         0.452003      0.027848     -0.037662
O      8.50569     17.39634     10.54374         0.673209     -0.261746     -0.057774
O     12.47271      3.58206     10.54374        -0.462278      0.152186      0.043023
O     12.47271     17.39634     10.43466        -0.531093     -0.013350     -0.009664
O     11.90042     11.90042     19.56718        -0.292533     -0.315139      0.253975
O     19.56718     19.56718     19.56718         0.283350      0.267192      0.310279
O     19.56718     11.90042     11.90042         0.262865     -0.322189     -0.237667
O     11.90042     19.56718     11.90042        -0.271442      0.280187     -0.265767
O      9.45224      1.03696      9.45224        -0.081818      0.041810     -0.069412
O      1.03696      9.45224      9.45224         0.017663     -0.166100     -0.099962
O      1.03696      1.03696      1.03696         0.000763      0.071361      0.184025
O      9.45224      9.45224      1.03696        -0.062882     -0.094229      0.112208
Zr     10.48920      2.52580     10.48920        -0.003132     -0.094380     -0.061330
Zr     10.48920     18.45260     10.48920         0.119200      0.333885     -0.006522
Zr     10.48920     10.48920      2.52580         0.019904     -0.058620     -0.417560
Zr     10.48920     10.48920     18.45260        -0.165539     -0.065249      0.389794
Zr      2.52580     10.48920     10.48920        -0.333624      0.247317     -0.110432
Zr     18.45260     10.48920     10.48920         0.273760     -0.010568     -0.286699
Pd      8.96043     10.12106     13.32668        -0.035792     -0.013745      0.008502
Pd     10.68609      9.68835     10.79678         0.002035     -0.002082     -0.053070
Pd     13.72329      8.44689     12.57804        -0.019666      0.039148     -0.016072
Pd     10.99200     10.90534     14.98334        -0.020706     -0.017060      0.017887
Pd     12.92263     11.06824     13.01099         0.010492      0.027315      0.038747
Pd     15.08395     11.07889     11.31473        -0.026235     -0.037984     -0.006018
Pd      6.61014      7.71793     12.32750        -0.002631      0.023212      0.017754
Pd      9.31513      7.30686      9.85315        -0.003912     -0.011318     -0.025535
Pd      9.24199      7.48075     12.61541         0.011653     -0.013673     -0.010643
Pd     11.64993      7.18504     11.40260         0.002921      0.010681     -0.016144
Pd     11.70156      7.98368      8.86493        -0.004638     -0.020981     -0.036762
Pd      7.35844     11.78164     11.78322        -0.022676     -0.022462     -0.023219
Pd      9.19157     14.71744      9.44172         0.000060     -0.030150      0.001204
Pd      8.38244     12.55267     14.26787        -0.028057     -0.015429      0.006393
Pd     14.09680     14.25320      8.31324         0.002791     -0.006324      0.000344
Pd     11.51265     13.63586      8.74392         0.015199     -0.014754      0.016149
Pd     14.15225     11.69402      8.88883        -0.014553     -0.008119      0.002189
Pd      8.71665     14.03260     12.08482         0.001085     -0.012016      0.008195
Pd     12.26279     13.54073     14.14190        -0.008577      0.026859     -0.000354
Pd     11.34782     14.39841     11.44601         0.002879     -0.037136      0.004566
Pd     14.07031     13.59790     12.25997        -0.004935     -0.012965     -0.007502
Pd     12.41456     12.12136     10.73931        -0.014703     -0.041376      0.007391
Pd     12.75276     12.54458      6.67141        -0.004665      0.007392     -0.007528
Pd     13.93743      8.99803      7.96108         0.008466     -0.012250     -0.040750
Pd      6.94490      8.49813      8.75728         0.005976      0.000567     -0.005967
Pd      5.62210     10.09916     10.69580         0.024364     -0.003518     -0.050935
Pd      9.39445      9.46941      8.07195        -0.001161     -0.027128     -0.042052
Pd      8.56273      7.02815      7.22738        -0.010543     -0.026840     -0.018725
Pd      9.75358     12.11339     10.39198         0.040343     -0.022201      0.094716
Pd     11.63081     10.81908      8.45398        -0.003299     -0.001192     -0.022057
Pd     11.59248      9.09089      6.43669         0.016408     -0.010494     -0.040982
Pd     10.10321     11.33670      6.24347         0.016499     -0.010620     -0.053544
Ir     11.28226      9.04854     13.18077        -0.011947      0.030252     -0.032772
Ir     13.22032      9.59906     10.34902        -0.002023     -0.018943     -0.032790
Ir     10.54586     12.22095     12.76486        -0.020197     -0.013828     -0.026549
Ir      7.61065     11.00735      9.25111        -0.032302     -0.075535      0.037777
Ir      8.93085     12.55680      8.07477         0.079318      0.006434     -0.080506
Ir      8.19601      9.31493     11.00775        -0.034828      0.029994     -0.036112
