8
# total energy = -53.47802040 eVC      1.14292     13.23072      0.00000         0.000000     -0.072089      0.000000
C      1.14292      4.05548     -0.00000         0.000000      0.072089      0.000000
O      1.14292      5.24468      0.00000         0.000000      0.044127      0.000000
O      1.14292     12.04152     -0.00000         0.000000     -0.044127     -0.000000
O     -0.00000     14.00510      0.00000        -0.000000     -0.032614     -0.000000
O      0.00000      3.28110     -0.00000         0.000000      0.032614      0.000000
Ir     -0.00000      8.64310      0.00000         0.000000      0.000000      0.000000
Ir     -0.00000      0.00000      0.00000         0.000000      0.000000      0.000000
