152
# total energy = -1022.89386750 eVH     10.35389      5.87395      7.64558         0.476758      0.032083      0.902193
H     10.62451     15.10445      7.64558        -0.050954      0.019401      0.765944
H     10.62451      5.87395     13.33282         0.143911      0.117632     -0.606838
H     10.35389     15.10445     13.33282        -0.275239     -0.074070     -0.577298
H      7.64558     10.35389      5.87395         0.335320     -0.035006      0.191371
H      7.64558     10.62451     15.10445         0.616963     -0.190202     -0.135855
H     13.33282     10.62451      5.87395        -0.838850     -0.297575      0.172752
H     13.33282     10.35389     15.10445        -0.476526     -0.102289     -0.052827
H      5.87395      7.64558     10.35389         0.128718      1.116073     -0.152135
H     15.10445      7.64558     10.62451        -0.167982      0.406261     -0.085382
H      5.87395     13.33282     10.62451         0.144325     -0.410515     -0.070871
H     15.10445     13.33282     10.35389        -0.077434     -0.970476     -0.182337
H      5.87395     10.35389      7.64558         0.132631      0.044247      0.485112
H     15.10445     10.62451      7.64558         0.120346     -0.200448      0.832471
H      5.87395     10.62451     13.33282         0.263068     -0.033337     -0.394401
H     15.10445     10.35389     13.33282        -0.136876      0.009348     -0.642137
H     10.35389      7.64558      5.87395         0.063535      0.850005      0.121366
H     10.62451      7.64558     15.10445         0.032051      0.531668     -0.146952
H     10.62451     13.33282      5.87395         0.057373     -0.605792      0.195613
H     10.35389     13.33282     15.10445        -0.261188     -0.881651     -0.103268
H      7.64558      5.87395     10.35389         0.524361      0.043352     -0.131518
H      7.64558     15.10445     10.62451         0.898608     -0.224995      0.270926
H     13.33282      5.87395     10.62451        -0.436423      0.185544     -0.058863
H     13.33282     15.10445     10.35389        -0.966559     -0.105356      0.217217
H     12.45634     12.45634     19.01126         0.266686      0.258448     -0.224310
H     19.01126     19.01126     19.01126        -0.247883     -0.234274     -0.262619
H     19.01126     12.45634     12.45634        -0.241395      0.270552      0.238452
H     12.45634     19.01126     12.45634         0.212111     -0.282625      0.252359
C     10.35284      5.61067      6.59456        -0.128385     -0.434205     -0.392987
C     10.62556     15.36773      6.59456         0.024872      0.346008     -1.145475
C     10.62556      5.61067     14.38384        -0.025809     -0.215218      0.724228
C     10.35284     15.36773     14.38384         0.182780      0.782733      0.152075
C      6.59456     10.35284      5.61067        -0.424318     -0.038987     -0.184489
C      6.59456     10.62556     15.36773        -0.796558      0.150614      0.352717
C     14.38384     10.62556      5.61067         0.604974      0.275259     -0.377697
C     14.38384     10.35284     15.36773         0.751165     -0.122477      0.438283
C      5.61067      6.59456     10.35284        -0.422226     -0.746646      0.282617
C     15.36773      6.59456     10.62556         0.192264     -0.473249      0.045187
C      5.61067     14.38384     10.62556        -0.244446      0.388407     -0.025853
C     15.36773     14.38384     10.35284         0.411772      0.111958      0.150825
C      5.61067     10.35284      6.59456        -0.303298     -0.013533     -0.881431
C     15.36773     10.62556      6.59456         0.563250     -0.153081     -1.229817
C      5.61067     10.62556     14.38384        -0.454863      0.006319      0.863264
C     15.36773     10.35284     14.38384         0.532019     -0.184345      1.247412
C     10.35284      6.59456      5.61067        -0.041619     -0.910936     -0.674709
C     10.62556      6.59456     15.36773         0.038389     -0.625815      0.291463
C     10.62556     14.38384      5.61067         0.049129      1.243725     -0.671872
C     10.35284     14.38384     15.36773         0.090113      0.578507      0.676904
C      6.59456      5.61067     10.35284        -0.213593     -0.883177      0.124195
C      6.59456     15.36773     10.62556        -1.707851      0.490860      0.057713
C     14.38384      5.61067     10.62556         0.584789     -0.222348     -0.005715
C     14.38384     15.36773     10.35284         0.082238      0.569487     -0.250347
C     10.40319      3.19606      7.29314         0.017153      0.922820     -0.258450
C     10.35913      4.25547      6.23373        -0.052427     -0.368866      0.619026
C      0.08601      7.29314      7.29314        -0.009154     -0.240352     -0.477534
C      0.13007      6.23373      6.23373         0.003064      0.108550      0.205073
C      0.08601      3.19606      3.19606        -0.016264      0.656354      0.180031
C      0.13007      4.25547      4.25547        -0.089240     -0.198036     -0.175013
C     10.40319      7.29314      3.19606        -0.000570     -0.704502      0.529569
C     10.35913      6.23373      4.25547        -0.006374      0.524764     -0.403001
C      7.29314     10.40319      3.19606        -0.347388      0.023534      0.845733
C      6.23373     10.35913      4.25547         0.218090      0.017907     -0.140951
C      7.29314      0.08601      7.29314        -0.313912     -0.046348     -0.272259
C      6.23373      0.13007      6.23373         0.270598     -0.059878      0.300855
C      3.19606      0.08601      3.19606         0.454295     -0.052270      1.279058
C      4.25547      0.13007      4.25547        -0.113159     -0.032137     -0.461632
C      3.19606     10.40319      7.29314         0.719121      0.014750     -0.261849
C      4.25547     10.35913      6.23373        -0.140977      0.037870      0.113274
C      3.19606      7.29314     10.40319         0.604234     -1.263790      0.023539
C      4.25547      6.23373     10.35913        -0.698772      0.854722      0.055069
C      7.29314      7.29314      0.08601        -0.669278     -0.171930     -0.021676
C      6.23373      6.23373      0.13007         0.176271      0.260954     -0.007998
C      3.19606      3.19606      0.08601         0.243737      0.256010     -0.018890
C      4.25547      4.25547      0.13007        -0.053392     -0.036990      0.009702
C      7.29314      3.19606     10.40319        -0.373637      0.797174      0.014195
C      6.23373      4.25547     10.35913         0.890904     -0.152343      0.008844
O     10.43466      3.58206      8.50569        -0.049897      0.029038      0.319212
O     10.54374     17.39634      8.50569        -0.026529     -0.181446      0.605736
O     10.54374      3.58206     12.47271         0.055134      0.059457     -0.319474
O     10.43466     17.39634     12.47271        -0.024372     -0.121918     -0.581086
O      8.50569     10.43466      3.58206         0.385539     -0.023038     -0.009765
O      8.50569     10.54374     17.39634         0.474316      0.053130     -0.142732
O     12.47271     10.54374      3.58206        -0.297581      0.046551     -0.071110
O     12.47271     10.43466     17.39634        -0.861163      0.021010     -0.227672
O      3.58206      8.50569     10.43466         0.044631      0.925756      0.035209
O     17.39634      8.50569     10.54374        -0.035759      0.335003      0.078430
O      3.58206     12.47271     10.54374         0.062008     -0.423223      0.063979
O     17.39634     12.47271     10.43466        -0.171282     -0.779333      0.021917
O      3.58206     10.43466      8.50569        -0.059246     -0.067527      0.217118
O     17.39634     10.54374      8.50569        -0.135464      0.042266      0.459973
O      3.58206     10.54374     12.47271        -0.014410     -0.048815     -0.884246
O     17.39634     10.43466     12.47271        -0.197449      0.040184     -0.756661
O     10.43466      8.50569      3.58206         0.046870      0.691914      0.193128
O     10.54374      8.50569     17.39634         0.055170      0.435017     -0.077664
O     10.54374     12.47271      3.58206        -0.009706     -0.737333      0.228761
O     10.43466     12.47271     17.39634         0.051260     -0.865716     -0.277532
O      8.50569      3.58206     10.43466         0.492480      0.075154     -0.038006
O      8.50569     17.39634     10.54374         0.665342     -0.256838     -0.063835
O     12.47271      3.58206     10.54374        -0.485088      0.162510      0.039615
O     12.47271     17.39634     10.43466        -0.525249     -0.036631     -0.028494
O     11.90042     11.90042     19.56718        -0.303670     -0.311866      0.262151
O     19.56718     19.56718     19.56718         0.287581      0.270697      0.320758
O     19.56718     11.90042     11.90042         0.280110     -0.329988     -0.243291
O     11.90042     19.56718     11.90042        -0.231611      0.290703     -0.241205
O      9.45224      1.03696      9.45224        -0.074183      0.048726     -0.066854
O      1.03696      9.45224      9.45224         0.052210     -0.148460     -0.060437
O      1.03696      1.03696      1.03696         0.039317      0.036184      0.189871
O      9.45224      9.45224      1.03696        -0.040061     -0.092926      0.122531
Zr     10.48920      2.52580     10.48920        -0.008353     -0.075889     -0.024622
Zr     10.48920     18.45260     10.48920         0.068731      0.312436     -0.065907
Zr     10.48920     10.48920      2.52580        -0.094922      0.009205     -0.381369
Zr     10.48920     10.48920     18.45260        -0.143608     -0.156226      0.337349
Zr      2.52580     10.48920     10.48920        -0.355589      0.310718     -0.452044
Zr     18.45260     10.48920     10.48920         0.237277      0.039278     -0.264477
Pd      9.03460     10.26191     13.34575        -0.028697     -0.018295      0.007449
Pd     10.57824      9.71849     10.96174         0.024657     -0.006320     -0.069418
Pd     13.77203      8.55864     12.67994        -0.011657      0.012811     -0.016414
Pd     10.99956     11.06832     15.03552        -0.002644     -0.022575     -0.006512
Pd     12.88531     11.21111     13.05786         0.023415      0.007559      0.011156
Pd     14.97798     10.94448     11.33590         0.003606      0.013858     -0.010211
Pd      6.66284      7.45208     12.33902        -0.008567      0.026369      0.002872
Pd      9.22217      7.27887     10.12159         0.012089      0.008182     -0.039277
Pd      9.28125      7.61827     12.79547        -0.001001     -0.023570     -0.020294
Pd     11.70455      7.29952     11.46200         0.001993     -0.000245     -0.015522
Pd     11.39956      7.99579      8.84994         0.028649     -0.006122     -0.012315
Pd      7.26326     11.84321     11.95562        -0.000735     -0.005879     -0.020267
Pd      8.94052     14.68924      9.35508         0.036644      0.016447      0.020091
Pd      8.41014     12.66207     14.32649        -0.006836     -0.009769      0.002087
Pd     13.58408     14.10343      8.52726         0.091030      0.028004     -0.055313
Pd     11.03719     13.35798      8.55588         0.095186      0.051659      0.050919
Pd     14.08002     11.53184      8.91840         0.000395      0.035231     -0.009685
Pd      8.63951     14.10696     12.10500         0.005079     -0.003185      0.003255
Pd     12.23883     13.75551     14.02885        -0.007582     -0.001476      0.000873
Pd     11.19768     14.41323     11.18748         0.022011     -0.008631      0.056751
Pd     14.04834     13.57262     12.16615        -0.005040      0.015159     -0.000575
Pd     12.31262     12.10959     10.69572         0.000220     -0.020539      0.013372
Pd     12.65980     12.34704      6.70411         0.018203      0.044046     -0.011810
Pd     13.66470      8.93816      7.91262         0.033139      0.007392     -0.013937
Pd      6.86875      8.47772      8.85802         0.005849      0.008865     -0.002867
Pd      5.52669      9.95878     11.23418         0.023315      0.029747     -0.058440
Pd      9.15154      9.74668      8.29054         0.040162     -0.045744     -0.012498
Pd      8.81540      7.23989      7.45938        -0.026419     -0.016808     -0.025110
Pd      9.54118     12.08749     10.43571         0.040877      0.010764      0.014460
Pd     11.53499     10.71612      8.55444         0.021873      0.020016     -0.034781
Pd     11.25273      9.23804      6.42536         0.036150     -0.022029     -0.008950
Pd      9.90296     11.54763      6.36552         0.038561     -0.033485     -0.002714
Ir     11.36096      9.13540     13.33948         0.001808      0.005246     -0.012188
Ir     13.08014      9.47972     10.37818        -0.002035      0.002912     -0.000297
Ir     10.53648     12.34425     12.73029         0.000027     -0.006487     -0.001818
Ir      7.17712     11.00055      9.49423         0.021428     -0.000790      0.005366
Ir      8.45698     12.48245      8.18800         0.042770      0.018987     -0.010325
Ir      8.06884      9.31662     11.12437        -0.017874      0.007102     -0.003744
