152
# total energy = -1022.69800499 eVH     10.35389      5.87395      7.64558         0.457751      0.024642      0.938536
H     10.62451     15.10445      7.64558        -0.007223      0.016245      0.719988
H     10.62451      5.87395     13.33282         0.136461      0.112998     -0.606173
H     10.35389     15.10445     13.33282        -0.274252     -0.070447     -0.553292
H      7.64558     10.35389      5.87395         0.349467     -0.054040      0.195601
H      7.64558     10.62451     15.10445         0.619241     -0.171523     -0.139893
H     13.33282     10.62451      5.87395        -0.945886     -0.408352      0.125738
H     13.33282     10.35389     15.10445        -0.480706     -0.086139     -0.052392
H      5.87395      7.64558     10.35389         0.101827      1.179877     -0.108594
H     15.10445      7.64558     10.62451        -0.170343      0.397588     -0.079771
H      5.87395     13.33282     10.62451         0.143078     -0.394915     -0.069150
H     15.10445     13.33282     10.35389        -0.082969     -0.962306     -0.264075
H      5.87395     10.35389      7.64558         0.123037      0.015663      0.455738
H     15.10445     10.62451      7.64558         0.148146     -0.220634      0.748342
H      5.87395     10.62451     13.33282         0.273175     -0.034278     -0.406261
H     15.10445     10.35389     13.33282        -0.147105      0.025958     -0.628935
H     10.35389      7.64558      5.87395         0.136741      0.831635      0.111851
H     10.62451      7.64558     15.10445         0.020944      0.629702     -0.135205
H     10.62451     13.33282      5.87395         0.164103     -0.599919      0.178763
H     10.35389     13.33282     15.10445        -0.236122     -0.889966     -0.112016
H      7.64558      5.87395     10.35389         0.529452      0.025820     -0.160911
H      7.64558     15.10445     10.62451         0.916631     -0.185372      0.326604
H     13.33282      5.87395     10.62451        -0.428782      0.190235     -0.064354
H     13.33282     15.10445     10.35389        -0.998973     -0.076549      0.254975
H     12.45634     12.45634     19.01126         0.269436      0.258106     -0.222573
H     19.01126     19.01126     19.01126        -0.248199     -0.235370     -0.261777
H     19.01126     12.45634     12.45634        -0.243838      0.270834      0.236772
H     12.45634     19.01126     12.45634         0.208050     -0.284882      0.254752
C     10.35284      5.61067      6.59456        -0.114524     -0.421593     -0.519516
C     10.62556     15.36773      6.59456         0.012856      0.339281     -1.053585
C     10.62556      5.61067     14.38384        -0.014479     -0.255485      0.725160
C     10.35284     15.36773     14.38384         0.209695      0.741248      0.079531
C      6.59456     10.35284      5.61067        -0.478148     -0.045598     -0.212245
C      6.59456     10.62556     15.36773        -0.798158      0.145368      0.366348
C     14.38384     10.62556      5.61067         0.846837      0.282333     -0.344607
C     14.38384     10.35284     15.36773         0.750870     -0.126322      0.430601
C      5.61067      6.59456     10.35284        -0.416554     -0.854477      0.224192
C     15.36773      6.59456     10.62556         0.207403     -0.479741      0.041810
C      5.61067     14.38384     10.62556        -0.262320      0.380788     -0.015706
C     15.36773     14.38384     10.35284         0.358930      0.220303      0.248448
C      5.61067     10.35284      6.59456        -0.315005     -0.000767     -0.876116
C     15.36773     10.62556      6.59456         0.542237     -0.131977     -1.231813
C      5.61067     10.62556     14.38384        -0.488431      0.007301      0.995529
C     15.36773     10.35284     14.38384         0.544208     -0.181739      1.269966
C     10.35284      6.59456      5.61067        -0.030236     -0.936731     -0.679902
C     10.62556      6.59456     15.36773         0.050292     -0.768553      0.337251
C     10.62556     14.38384      5.61067         0.007226      1.332310     -0.728571
C     10.35284     14.38384     15.36773         0.075985      0.603691      0.647508
C      6.59456      5.61067     10.35284        -0.244074     -0.905691      0.127748
C      6.59456     15.36773     10.62556        -1.753025      0.494816      0.029026
C     14.38384      5.61067     10.62556         0.567681     -0.223628     -0.005401
C     14.38384     15.36773     10.35284         0.308337      0.505585     -0.222777
C     10.40319      3.19606      7.29314         0.018719      0.943084     -0.244546
C     10.35913      4.25547      6.23373        -0.047823     -0.328324      0.660522
C      0.08601      7.29314      7.29314        -0.009988     -0.226832     -0.459286
C      0.13007      6.23373      6.23373        -0.006059      0.129763      0.194992
C      0.08601      3.19606      3.19606        -0.019884      0.681846      0.164992
C      0.13007      4.25547      4.25547        -0.095866     -0.193708     -0.169919
C     10.40319      7.29314      3.19606        -0.000477     -0.672694      0.506500
C     10.35913      6.23373      4.25547         0.002663      0.543188     -0.332899
C      7.29314     10.40319      3.19606        -0.384245      0.020043      0.842015
C      6.23373     10.35913      4.25547         0.224582      0.008996     -0.155934
C      7.29314      0.08601      7.29314        -0.303740     -0.048282     -0.251100
C      6.23373      0.13007      6.23373         0.259096     -0.066111      0.273909
C      3.19606      0.08601      3.19606         0.381949     -0.054625      1.317833
C      4.25547      0.13007      4.25547        -0.140343     -0.017850     -0.439652
C      3.19606     10.40319      7.29314         0.722597      0.016288     -0.266056
C      4.25547     10.35913      6.23373        -0.133230      0.035688      0.118763
C      3.19606      7.29314     10.40319         0.569871     -1.265615      0.035195
C      4.25547      6.23373     10.35913        -0.740946      0.776721      0.034290
C      7.29314      7.29314      0.08601        -0.646309     -0.172437     -0.025019
C      6.23373      6.23373      0.13007         0.170771      0.269685     -0.014894
C      3.19606      3.19606      0.08601         0.246409      0.254072     -0.020673
C      4.25547      4.25547      0.13007        -0.052284     -0.034909      0.017011
C      7.29314      3.19606     10.40319        -0.369208      0.741113      0.023911
C      6.23373      4.25547     10.35913         0.810061     -0.184489      0.027270
O     10.43466      3.58206      8.50569        -0.052813      0.024410      0.304891
O     10.54374     17.39634      8.50569        -0.019819     -0.188665      0.605054
O     10.54374      3.58206     12.47271         0.060936      0.053784     -0.306850
O     10.43466     17.39634     12.47271        -0.025559     -0.123164     -0.568014
O      8.50569     10.43466      3.58206         0.405258     -0.013466     -0.003013
O      8.50569     10.54374     17.39634         0.466794      0.056232     -0.143919
O     12.47271     10.54374      3.58206        -0.250740      0.059902     -0.096652
O     12.47271     10.43466     17.39634        -0.849541      0.023159     -0.215153
O      3.58206      8.50569     10.43466         0.034265      0.905060      0.041626
O     17.39634      8.50569     10.54374        -0.037749      0.345304      0.079099
O      3.58206     12.47271     10.54374         0.066705     -0.422993      0.060765
O     17.39634     12.47271     10.43466        -0.163789     -0.743506      0.013719
O      3.58206     10.43466      8.50569        -0.055224     -0.062568      0.230273
O     17.39634     10.54374      8.50569        -0.133897      0.042435      0.448344
O      3.58206     10.54374     12.47271        -0.040121     -0.057529     -0.872316
O     17.39634     10.43466     12.47271        -0.190499      0.037840     -0.748145
O     10.43466      8.50569      3.58206         0.035968      0.685827      0.195013
O     10.54374      8.50569     17.39634         0.053587      0.414469     -0.076052
O     10.54374     12.47271      3.58206        -0.026751     -0.737364      0.242133
O     10.43466     12.47271     17.39634         0.054558     -0.855285     -0.278601
O      8.50569      3.58206     10.43466         0.500902      0.088540     -0.040698
O      8.50569     17.39634     10.54374         0.651718     -0.244261     -0.058106
O     12.47271      3.58206     10.54374        -0.497267      0.161595      0.041561
O     12.47271     17.39634     10.43466        -0.504067     -0.034530     -0.038777
O     11.90042     11.90042     19.56718        -0.305766     -0.311391      0.262902
O     19.56718     19.56718     19.56718         0.289835      0.273995      0.320760
O     19.56718     11.90042     11.90042         0.283063     -0.328309     -0.239490
O     11.90042     19.56718     11.90042        -0.222420      0.294631     -0.241412
O      9.45224      1.03696      9.45224        -0.072501      0.055287     -0.064624
O      1.03696      9.45224      9.45224         0.065940     -0.140324     -0.051975
O      1.03696      1.03696      1.03696         0.047437      0.030963      0.187945
O      9.45224      9.45224      1.03696        -0.036828     -0.085879      0.127608
Zr     10.48920      2.52580     10.48920        -0.003845     -0.076453     -0.029262
Zr     10.48920     18.45260     10.48920         0.043458      0.291721     -0.068003
Zr     10.48920     10.48920      2.52580        -0.092699     -0.016379     -0.374457
Zr     10.48920     10.48920     18.45260        -0.140971     -0.178919      0.312361
Zr      2.52580     10.48920     10.48920        -0.327371      0.329411     -0.477802
Zr     18.45260     10.48920     10.48920         0.224641      0.038013     -0.269932
Pd      9.05612     10.28275     13.38303        -0.005876     -0.005575     -0.020736
Pd     10.62674      9.73161     11.10231        -0.016729      0.012591     -0.038133
Pd     13.76206      8.54660     12.73688        -0.005376      0.001209     -0.030338
Pd     11.00442     11.10365     15.06320        -0.002751     -0.007396     -0.019488
Pd     12.84545     11.19235     13.06170         0.010180      0.002250     -0.011030
Pd     14.96399     10.89796     11.35872         0.003001      0.012018     -0.005260
Pd      6.68259      7.41424     12.32194        -0.015042      0.003978      0.010744
Pd      9.21694      7.26289     10.20365         0.003470      0.000595     -0.027831
Pd      9.26402      7.64063     12.85794         0.001125     -0.013991     -0.019718
Pd     11.70594      7.27440     11.52945        -0.009757      0.018495     -0.038627
Pd     11.34219      7.98559      8.90312         0.015708     -0.001728     -0.023964
Pd      7.24065     11.82996     12.00525         0.008423      0.004046     -0.020214
Pd      8.88346     14.65465      9.33463         0.006024      0.010223     -0.001133
Pd      8.42436     12.69025     14.33695         0.001962     -0.012510     -0.008894
Pd     13.35582     13.99565      8.63603         0.066122      0.042463     -0.025185
Pd     10.85588     13.22844      8.45848         0.044260      0.047241      0.023883
Pd     14.05896     11.44389      8.94212         0.012956      0.031040     -0.004511
Pd      8.62525     14.09534     12.09066         0.002627      0.008980      0.005805
Pd     12.24148     13.76312     14.00886         0.003435     -0.003100      0.010876
Pd     11.14126     14.40383     11.07657         0.011057      0.016217      0.029978
Pd     14.07707     13.52041     12.17452        -0.006911      0.019356     -0.000995
Pd     12.31607     12.13209     10.69319         0.000343      0.009445     -0.015007
Pd     12.55263     12.16165      6.75323         0.052450      0.069568     -0.005681
Pd     13.57582      8.91780      7.90472         0.021610      0.012174      0.004774
Pd      6.86516      8.45408      8.89604        -0.004855      0.007611     -0.016283
Pd      5.52381      9.88161     11.32535         0.006848      0.022672     -0.021298
Pd      9.05405      9.83100      8.25218         0.032329     -0.042579      0.028676
Pd      8.88477      7.29802      7.53432        -0.025012     -0.031368     -0.018498
Pd      9.48566     12.03990     10.43972         0.018406      0.028098     -0.002696
Pd     11.46078     10.65055      8.68711         0.021622      0.024406     -0.045095
Pd     11.13822      9.33915      6.46025         0.048423     -0.047170     -0.013491
Pd      9.75543     11.64913      6.31864         0.068790     -0.047840      0.042376
Ir     11.37053      9.09167     13.46204        -0.004161      0.007276     -0.037931
Ir     13.07568      9.41002     10.41999        -0.011480      0.036150     -0.016124
Ir     10.54075     12.36689     12.71019         0.003284      0.001053     -0.000048
Ir      7.05949     10.97640      9.56131         0.019698     -0.014859      0.001261
Ir      8.29011     12.44459      8.21069         0.056630      0.019286     -0.018396
Ir      8.09187      9.33432     11.14556        -0.024719     -0.011861     -0.014961
