40
# total energy = -343.81128364 eVC      1.19306      4.90964      7.50000         0.181225      0.388714     -0.000000
C     13.93384      3.45362      7.50000        -0.181225     -0.388714      0.000000
C     13.93384      4.90964      7.50000        -0.181225      0.388714      0.000000
C      1.19306      3.45362      7.50000         0.181225     -0.388714     -0.000000
C      8.75651      0.72801      7.50000         0.181225      0.388714     -0.000000
C      6.37039      7.63525      7.50000        -0.181225     -0.388714      0.000000
C      6.37039      0.72801      7.50000        -0.181225      0.388714      0.000000
C      8.75651      7.63525      7.50000         0.181225     -0.388714     -0.000000
C      2.48829      2.78444      7.50000         0.144383      0.782228     -0.000000
C     12.63861      5.57882      7.50000        -0.144383     -0.782228      0.000000
C     12.63861      2.78444      7.50000        -0.144383      0.782228     -0.000000
C      2.48829      5.57882      7.50000         0.144383     -0.782228     -0.000000
C     10.05174      6.96607      7.50000         0.144383      0.782228     -0.000000
C      5.07516      1.39719      7.50000        -0.144383     -0.782228      0.000000
C      5.07516      6.96607      7.50000        -0.144383      0.782228      0.000000
C     10.05174      1.39719      7.50000         0.144383     -0.782228     -0.000000
C      3.72660      4.88812      7.50000        -0.137357     -0.005907     -0.000000
C     11.40030      3.47514      7.50000         0.137357      0.005907      0.000000
C     11.40030      4.88812      7.50000         0.137357     -0.005907      0.000000
C      3.72660      3.47514      7.50000        -0.137357      0.005907     -0.000000
C     11.29005      0.70649      7.50000        -0.137357     -0.005907     -0.000000
C      3.83685      7.65677      7.50000         0.137357      0.005907      0.000000
C      3.83685      0.70649      7.50000         0.137357     -0.005907      0.000000
C     11.29005      7.65677      7.50000        -0.137357      0.005907     -0.000000
N      2.65183      6.92130      7.50000        -1.261174      1.792339      0.000000
N     12.47507      1.44196      7.50000         1.261174     -1.792339     -0.000000
N     12.47507      6.92130      7.50000         1.261174      1.792339      0.000000
N      2.65183      1.44196      7.50000        -1.261174     -1.792339      0.000000
N     10.21528      2.73967      7.50000        -1.261174      1.792339      0.000000
N      4.91162      5.62359      7.50000         1.261174     -1.792339     -0.000000
N      4.91162      2.73967      7.50000         1.261174      1.792339      0.000000
N     10.21528      5.62359      7.50000        -1.261174     -1.792339      0.000000
N      7.56345      6.89826      7.50000        -0.000000     -0.020665      0.000000
N      7.56345      1.46500      7.50000         0.000000      0.020665      0.000000
N      0.00000      2.71663      7.50000         0.000000     -0.020665      0.000000
N      0.00000      5.64663      7.50000         0.000000      0.020665      0.000000
Zr     14.02611      0.00000      7.50000         1.239104      0.000000     -0.000000
Zr      1.10079     -0.00000      7.50000        -1.239104     -0.000000     -0.000000
Zr      6.46266      4.18163      7.50000         1.239104     -0.000000     -0.000000
Zr      8.66424      4.18163      7.50000        -1.239104     -0.000000     -0.000000
