40
# total energy = -344.62445538 eVC      1.19688      4.91572      7.50000         0.085581      0.018118     -0.000000
C     13.93002      3.44754      7.50000        -0.085581     -0.018118      0.000000
C     13.93002      4.91572      7.50000        -0.085581      0.018118      0.000000
C      1.19688      3.44754      7.50000         0.085581     -0.018118     -0.000000
C      8.76033      0.73409      7.50000         0.085581      0.018118     -0.000000
C      6.36657      7.62917      7.50000        -0.085581     -0.018118      0.000000
C      6.36657      0.73409      7.50000        -0.085581      0.018118      0.000000
C      8.76033      7.62917      7.50000         0.085581     -0.018118     -0.000000
C      2.49224      2.78507      7.50000        -0.018617     -0.529407     -0.000000
C     12.63466      5.57819      7.50000         0.018617      0.529407      0.000000
C     12.63466      2.78507      7.50000         0.018617     -0.529407      0.000000
C      2.49224      5.57819      7.50000        -0.018617      0.529407     -0.000000
C     10.05569      6.96670      7.50000        -0.018617     -0.529407     -0.000000
C      5.07121      1.39656      7.50000         0.018617      0.529407      0.000000
C      5.07121      6.96670      7.50000         0.018617     -0.529407      0.000000
C     10.05569      1.39656      7.50000        -0.018617      0.529407     -0.000000
C      3.73039      4.88687      7.50000         0.115437      0.166323     -0.000000
C     11.39651      3.47639      7.50000        -0.115437     -0.166323      0.000000
C     11.39651      4.88687      7.50000        -0.115437      0.166323      0.000000
C      3.73039      3.47639      7.50000         0.115437     -0.166323     -0.000000
C     11.29384      0.70524      7.50000         0.115437      0.166323     -0.000000
C      3.83306      7.65802      7.50000        -0.115437     -0.166323     -0.000000
C      3.83306      0.70524      7.50000        -0.115437      0.166323      0.000000
C     11.29384      7.65802      7.50000         0.115437     -0.166323     -0.000000
N      2.61812      6.95779      7.50000        -0.508788      0.350222      0.000000
N     12.50878      1.40547      7.50000         0.508788     -0.350222     -0.000000
N     12.50878      6.95779      7.50000         0.508788      0.350222     -0.000000
N      2.61812      1.40547      7.50000        -0.508788     -0.350222      0.000000
N     10.18157      2.77616      7.50000        -0.508788      0.350222      0.000000
N      4.94533      5.58710      7.50000         0.508788     -0.350222     -0.000000
N      4.94533      2.77616      7.50000         0.508788      0.350222     -0.000000
N     10.18157      5.58710      7.50000        -0.508788     -0.350222      0.000000
N      7.56345      6.89589      7.50000        -0.000000      0.012445     -0.000000
N      7.56345      1.46737      7.50000        -0.000000     -0.012445     -0.000000
N     -0.00000      2.71426      7.50000        -0.000000      0.012445     -0.000000
N     -0.00000      5.64900      7.50000        -0.000000     -0.012445      0.000000
Zr     14.10932      0.00000      7.50000        -0.528619      0.000000      0.000000
Zr      1.01758      0.00000      7.50000         0.528619      0.000000     -0.000000
Zr      6.54587      4.18163      7.50000        -0.528619      0.000000      0.000000
Zr      8.58103      4.18163      7.50000         0.528619      0.000000     -0.000000
