152
# total energy = -1060.09233859 eVH     10.35389      5.87395      7.64558        -0.303503      0.074871      1.119842
H     10.62451     15.10445      7.64558         0.063290     -0.071340      0.928332
H     10.62451      5.87395     13.33282        -0.271704      0.063691     -0.794022
H     10.35389     15.10445     13.33282         0.077671     -0.305361     -0.856822
H      7.64558     10.35389      5.87395         0.924684     -0.158493      0.193022
H      7.64558     10.62451     15.10445         0.326652     -0.035228     -0.068754
H     13.33282     10.62451      5.87395        -0.869974      0.200665      0.224302
H     13.33282     10.35389     15.10445        -0.277856     -0.020911     -0.068855
H      5.87395      7.64558     10.35389         0.088931      0.427988     -0.008884
H     15.10445      7.64558     10.62451        -0.002828      0.448122     -0.064415
H      5.87395     13.33282     10.62451        -0.005729     -0.960487      0.090332
H     15.10445     13.33282     10.35389        -0.052665     -0.326825     -0.005380
H      5.87395     10.35389      7.64558         0.293141      0.095215      0.388025
H     15.10445     10.62451      7.64558        -0.117831     -0.174996      0.672882
H      5.87395     10.62451     13.33282        -0.074150      0.462816     -0.615402
H     15.10445     10.35389     13.33282         0.256909     -0.656008     -0.836557
H     10.35389      7.64558      5.87395        -0.046552      0.493068      0.340277
H     10.62451      7.64558     15.10445         0.318916      0.813315      0.005401
H     10.62451     13.33282      5.87395         0.145574     -0.563646      0.201291
H     10.35389     13.33282     15.10445         0.023334     -0.284464     -0.163385
H      7.64558      5.87395     10.35389         0.356313      0.104721      0.051190
H      7.64558     15.10445     10.62451         0.385816     -0.125253      0.168825
H     13.33282      5.87395     10.62451        -0.308941      0.135244     -0.018748
H     13.33282     15.10445     10.35389        -0.667299     -0.091220      0.128744
H     12.45634     12.45634     19.01126         0.256755      0.271910     -0.227838
H     19.01126     19.01126     19.01126        -0.246002     -0.268487     -0.246473
H     19.01126     12.45634     12.45634        -0.250576      0.271528      0.235503
H     12.45634     19.01126     12.45634         0.289470     -0.236694      0.233989
C     10.35284      5.61067      6.59456         0.401060     -0.420242     -1.390771
C     10.62556     15.36773      6.59456        -0.147001      0.584992     -0.643702
C     10.62556      5.61067     14.38384         0.373217     -0.312855      0.801853
C     10.35284     15.36773     14.38384        -0.218079      0.191918      1.080563
C      6.59456     10.35284      5.61067        -1.415503      0.032778     -0.242023
C      6.59456     10.62556     15.36773        -0.647550      0.065340      0.365450
C     14.38384     10.62556      5.61067         1.288505     -0.171702     -0.642745
C     14.38384     10.35284     15.36773         0.334538     -0.122991      0.346305
C      5.61067      6.59456     10.35284        -0.284258     -0.688041     -0.027887
C     15.36773      6.59456     10.62556         0.416938     -0.923385      0.051696
C      5.61067     14.38384     10.62556        -0.142824      1.169894     -0.210741
C     15.36773     14.38384     10.35284         0.504723      0.679206     -0.025527
C      5.61067     10.35284      6.59456        -0.379004     -0.096537     -0.733276
C     15.36773     10.62556      6.59456         0.425392      0.111387     -0.748025
C      5.61067     10.62556     14.38384        -0.397179     -0.170646      1.224850
C     15.36773     10.35284     14.38384         0.262846      0.196804      1.480495
C     10.35284      6.59456      5.61067        -0.057591     -0.738409     -0.592404
C     10.62556      6.59456     15.36773        -0.137688     -0.970308      0.368786
C     10.62556     14.38384      5.61067        -0.478361      0.387106     -0.735685
C     10.35284     14.38384     15.36773        -0.162638      0.715323      0.455693
C      6.59456      5.61067     10.35284        -0.553560     -0.349934      0.008371
C      6.59456     15.36773     10.62556        -0.390175      0.452027      0.058745
C     14.38384      5.61067     10.62556         0.436979     -0.327582      0.001590
C     14.38384     15.36773     10.35284         1.140070      0.519655     -0.070714
C     10.40319      3.19606      7.29314        -0.003458      0.713258     -0.329857
C     10.35913      4.25547      6.23373         0.012748     -0.406268      0.285492
C      0.08601      7.29314      7.29314        -0.017425     -0.361837     -0.508875
C      0.13007      6.23373      6.23373        -0.054803      0.896692      0.082734
C      0.08601      3.19606      3.19606        -0.004843      0.699797      0.265254
C      0.13007      4.25547      4.25547         0.038999     -0.270629     -0.539375
C     10.40319      7.29314      3.19606        -0.067114     -1.144579      0.576473
C     10.35913      6.23373      4.25547        -0.040020      0.359422     -0.195476
C      7.29314     10.40319      3.19606        -1.105279     -0.058988      0.189600
C      6.23373     10.35913      4.25547         0.373088      0.087052     -0.538876
C      7.29314      0.08601      7.29314        -0.419572      0.034297     -0.516341
C      6.23373      0.13007      6.23373         0.181310      0.126643      0.129613
C      3.19606      0.08601      3.19606         0.719856      0.029987      0.163801
C      4.25547      0.13007      4.25547        -0.169876     -0.043383     -0.368090
C      3.19606     10.40319      7.29314         0.367576     -0.024163     -0.919624
C      4.25547     10.35913      6.23373        -0.141430     -0.070423      0.098156
C      3.19606      7.29314     10.40319         0.596650     -0.399387      0.001352
C      4.25547      6.23373     10.35913        -0.111663      0.188803      0.007684
C      7.29314      7.29314      0.08601        -0.421573     -0.309965     -0.017638
C      6.23373      6.23373      0.13007         0.158147      0.177725     -0.048450
C      3.19606      3.19606      0.08601         0.290541      0.486012     -0.026272
C      4.25547      4.25547      0.13007        -0.392217     -0.226922     -0.040135
C      7.29314      3.19606     10.40319        -0.273740      0.583970     -0.010519
C      6.23373      4.25547     10.35913         0.017084     -0.089579      0.018042
O     10.43466      3.58206      8.50569        -0.026383      0.087033      0.315575
O     10.54374     17.39634      8.50569         0.063646     -0.132493      0.608122
O     10.54374      3.58206     12.47271         0.027861      0.102292     -0.394487
O     10.43466     17.39634     12.47271         0.091559     -0.052925     -0.398066
O      8.50569     10.43466      3.58206         0.735349     -0.068603      0.010642
O      8.50569     10.54374     17.39634         0.470364      0.057211     -0.079506
O     12.47271     10.54374      3.58206        -0.664644      0.109254      0.211735
O     12.47271     10.43466     17.39634        -0.280404      0.003060      0.025229
O      3.58206      8.50569     10.43466         0.038034      0.453164     -0.064793
O     17.39634      8.50569     10.54374        -0.054369      0.454352      0.056170
O      3.58206     12.47271     10.54374         0.108438     -0.590042      0.002586
O     17.39634     12.47271     10.43466        -0.172653     -0.729124     -0.055378
O      3.58206     10.43466      8.50569         0.209443     -0.063694      0.797537
O     17.39634     10.54374      8.50569        -0.108483      0.076168      0.567425
O      3.58206     10.54374     12.47271        -0.007198     -0.003923     -0.256125
O     17.39634     10.43466     12.47271         0.044659     -0.012094     -0.213325
O     10.43466      8.50569      3.58206        -0.099565      0.552063     -0.104597
O     10.54374      8.50569     17.39634         0.063088      0.504482     -0.086416
O     10.54374     12.47271      3.58206         0.105025     -0.640491      0.132088
O     10.43466     12.47271     17.39634        -0.063445     -0.665857     -0.257418
O      8.50569      3.58206     10.43466         0.396921      0.027441     -0.039090
O      8.50569     17.39634     10.54374         0.637473     -0.155739      0.047556
O     12.47271      3.58206     10.54374        -0.511128      0.122298      0.032099
O     12.47271     17.39634     10.43466        -0.618168     -0.132412      0.039027
O     11.90042     11.90042     19.56718        -0.276718     -0.308245      0.228557
O     19.56718     19.56718     19.56718         0.305374      0.322108      0.300564
O     19.56718     11.90042     11.90042         0.284778     -0.327536     -0.232567
O     11.90042     19.56718     11.90042        -0.314845      0.230531     -0.200955
O      9.45224      1.03696      9.45224        -0.075692      0.078936     -0.078944
O      1.03696      9.45224      9.45224         0.094709     -0.109984     -0.056302
O      1.03696      1.03696      1.03696         0.081500      0.052807      0.100766
O      9.45224      9.45224      1.03696        -0.058235     -0.129883      0.133117
Zr     10.48920      2.52580     10.48920         0.036376     -0.081498      0.097024
Zr     10.48920     18.45260     10.48920        -0.174960      0.259576     -0.354029
Zr     10.48920     10.48920      2.52580         0.112268      0.359668     -0.354787
Zr     10.48920     10.48920     18.45260        -0.086127     -0.236632      0.212602
Zr      2.52580     10.48920     10.48920        -0.245233      0.135471      0.234191
Zr     18.45260     10.48920     10.48920         0.213050     -0.118115     -0.001416
Pd      9.38450     14.26631      9.36270        -0.005378      0.020801     -0.031625
Pd      8.60677     13.67229     12.96946        -0.001230     -0.006617      0.026566
Pd     12.02813     14.40267      8.72786         0.004877      0.001142      0.002380
Pd     12.82158     12.86391     10.63050        -0.029994     -0.004868      0.029009
Pd     12.11381      7.16568     12.65807         0.009248     -0.012053     -0.014295
Pd     11.21715     14.83706     11.50510        -0.028755      0.026123     -0.024387
Pd     10.10212     12.49121     11.10935        -0.035288      0.029800     -0.021546
Pd     13.47333     12.11899      7.97345         0.006209      0.014979      0.002671
Pd     11.47892     11.54101      6.10374         0.002069      0.001007      0.002743
Pd      7.90039      8.52035      7.52703         0.007004     -0.048682      0.002707
Pd      8.72611     11.74861      6.85649        -0.005542      0.006740     -0.001569
Pd     10.34320      9.45891      8.13877        -0.009344     -0.005673     -0.006311
Pd      8.51056     14.45805      6.84055        -0.008423      0.003707     -0.029468
Pd     12.38274      8.99449      6.52986         0.007979      0.012097      0.011084
Pd      9.72233      9.61144      5.55979        -0.002551      0.004249      0.000507
Pd      6.83970      9.44430     12.17541        -0.010590      0.004488     -0.006715
Pd     12.19193      6.71122      7.91870        -0.004160      0.008601      0.005023
Pd      5.92496     10.46352      9.71956        -0.007319      0.001012     -0.002045
Pd      7.58259      7.19805     13.38583        -0.019754      0.009831      0.010178
Ir     11.78142      9.75265     13.04587        -0.033616      0.003624      0.013025
Ir     13.56562      8.99821     11.43999        -0.003695      0.027262      0.007418
Ir      9.45425      8.84958     13.96106        -0.021093      0.008214      0.031161
Ir     10.56147     11.02002     14.83754        -0.018522     -0.023250      0.032445
Ir      7.28799     12.01281     11.34534        -0.003860     -0.002591     -0.004916
Ir     14.68616     10.83807     10.08846        -0.027539      0.028087      0.034854
Ir     12.16237     10.55015      9.70540         0.006237      0.004180     -0.017484
Ir      8.76198     11.00984     13.00211        -0.000584      0.001260     -0.011810
Ir     10.11313      9.87679     11.19811         0.002341      0.015589     -0.010106
Ir     13.78700     11.37122     12.41166        -0.036780      0.019357      0.033579
Ir     11.68925     12.35692     13.08116        -0.060450     -0.023944      0.002552
Ir      8.51030     11.07809      9.34925        -0.014711      0.024907     -0.016901
Ir     11.57651      8.00180     10.10868        -0.002868      0.009126      0.004176
Ir      7.22847     13.01703      8.67672         0.013123     -0.000173      0.000152
Ir      9.51462      6.99183      9.16134         0.007731      0.001817      0.045609
Ir      8.04443      8.75586     10.07933         0.008394     -0.017049      0.005827
Ir     10.72879     12.10978      8.51058        -0.004472      0.007712     -0.010777
Ir      9.51895      7.50695     11.71013         0.002545      0.039816      0.012878
Ir     13.63791      8.78142      8.79372         0.019408      0.005675      0.023007
