152
# total energy = -1005.61167943 eVH     10.35389      5.87395      7.64558         0.158745      0.101436      0.566787
H     10.62451     15.10445      7.64558        -0.116400     -0.148054      0.497720
H     10.62451      5.87395     13.33282         0.585703      0.089408     -0.802722
H     10.35389     15.10445     13.33282         0.028912     -0.159844     -0.412752
H      7.64558     10.35389      5.87395         0.354056      0.037054      0.165747
H      7.64558     10.62451     15.10445         0.865230      0.514949     -0.010649
H     13.33282     10.62451      5.87395        -0.442098      0.347642      0.113627
H     13.33282     10.35389     15.10445        -0.850798     -0.072137      0.011564
H      5.87395      7.64558     10.35389         0.311071      1.188611      0.037003
H     15.10445      7.64558     10.62451        -0.106737      0.485245      0.291542
H      5.87395     13.33282     10.62451         0.187902     -0.628055      0.020837
H     15.10445     13.33282     10.35389        -0.075630     -0.953437     -0.205673
H      5.87395     10.35389      7.64558         0.208314      0.047694      0.444232
H     15.10445     10.62451      7.64558        -0.140079      0.506737      0.777487
H      5.87395     10.62451     13.33282         0.086443      0.392985     -0.958840
H     15.10445     10.35389     13.33282        -0.074032     -0.034214     -0.652290
H     10.35389      7.64558      5.87395         0.332923      1.152973      0.058823
H     10.62451      7.64558     15.10445         0.703665      0.670384     -0.205862
H     10.62451     13.33282      5.87395        -0.398748     -0.805750      0.265695
H     10.35389     13.33282     15.10445        -0.096076     -0.468588     -0.285407
H      7.64558      5.87395     10.35389         0.868607      0.054890     -0.222175
H      7.64558     15.10445     10.62451         0.808751     -0.180819      0.024321
H     13.33282      5.87395     10.62451        -0.729082      0.173135      0.522685
H     13.33282     15.10445     10.35389        -0.378888     -0.117954     -0.095532
H     12.45634     12.45634     19.01126         0.245408      0.271087     -0.233621
H     19.01126     19.01126     19.01126        -0.272636     -0.248446     -0.242747
H     19.01126     12.45634     12.45634        -0.276432      0.263512      0.221067
H     12.45634     19.01126     12.45634         0.235925     -0.263035      0.272794
C     10.35284      5.61067      6.59456        -0.322746     -0.727495     -0.082107
C     10.62556     15.36773      6.59456         0.068973      0.351578     -0.257725
C     10.62556      5.61067     14.38384        -0.150727     -0.510467      0.159962
C     10.35284     15.36773     14.38384         0.015264      0.199377      0.369023
C      6.59456     10.35284      5.61067        -0.388550      0.011845     -0.253174
C      6.59456     10.62556     15.36773        -0.585708      0.053558      0.634290
C     14.38384     10.62556      5.61067        -0.249019     -0.466609     -0.665068
C     14.38384     10.35284     15.36773         1.040504     -0.087485      0.178875
C      5.61067      6.59456     10.35284        -0.717391     -0.224089     -0.355337
C     15.36773      6.59456     10.62556         0.542168      0.009907     -0.330883
C      5.61067     14.38384     10.62556        -0.249446      0.722984     -0.009249
C     15.36773     14.38384     10.35284         0.288959      0.959948      0.031835
C      5.61067     10.35284      6.59456        -0.291589     -0.002582     -0.755312
C     15.36773     10.62556      6.59456         0.488425     -0.268851      0.192067
C      5.61067     10.62556     14.38384        -0.650845     -0.061186      0.362476
C     15.36773     10.35284     14.38384         0.427967     -0.036981      1.012212
C     10.35284      6.59456      5.61067        -0.154938     -0.745661     -0.566191
C     10.62556      6.59456     15.36773        -0.092598     -0.368178      0.592648
C     10.62556     14.38384      5.61067         0.202087      1.129597     -0.365065
C     10.35284     14.38384     15.36773        -0.003417      0.819253      0.387783
C      6.59456      5.61067     10.35284         0.065309     -1.060832      0.227466
C      6.59456     15.36773     10.62556        -0.979998      0.229167      0.082576
C     14.38384      5.61067     10.62556         0.320832     -0.549900     -0.367934
C     14.38384     15.36773     10.35284         0.144687      0.389523     -0.077222
C     10.40319      3.19606      7.29314         0.006011      0.840609     -0.458446
C     10.35913      4.25547      6.23373         0.067401     -0.554192      0.098141
C      0.08601      7.29314      7.29314        -0.043812     -0.748932     -0.248092
C      0.13007      6.23373      6.23373        -0.040966      0.175723      0.488985
C      0.08601      3.19606      3.19606         0.016786      1.409884      0.269265
C      0.13007      4.25547      4.25547         0.024137     -0.660288     -0.233439
C     10.40319      7.29314      3.19606         0.004226     -0.331947      0.270510
C     10.35913      6.23373      4.25547         0.028978      0.027873     -0.730811
C      7.29314     10.40319      3.19606        -0.254910      0.017964      0.545580
C      6.23373     10.35913      4.25547         0.144837      0.045420     -0.061677
C      7.29314      0.08601      7.29314        -0.772526     -0.075906     -0.312405
C      6.23373      0.13007      6.23373         0.788886     -0.156920      0.425763
C      3.19606      0.08601      3.19606         0.942703     -0.022447      0.580721
C      4.25547      0.13007      4.25547        -0.549765     -0.080195     -0.621389
C      3.19606     10.40319      7.29314         0.534811     -0.009330     -0.759719
C      4.25547     10.35913      6.23373        -0.271078      0.067414      0.214718
C      3.19606      7.29314     10.40319         0.287809     -1.289290      0.029367
C      4.25547      6.23373     10.35913        -1.037348      0.020947      0.114081
C      7.29314      7.29314      0.08601        -0.434108     -0.418606     -0.015216
C      6.23373      6.23373      0.13007         0.525882      0.236832      0.011370
C      3.19606      3.19606      0.08601         0.453410      0.363434     -0.035199
C      4.25547      4.25547      0.13007        -0.132706     -0.590825     -0.044262
C      7.29314      3.19606     10.40319        -0.375088      0.435001      0.056387
C      6.23373      4.25547     10.35913         0.261663     -0.734548      0.137079
O     10.43466      3.58206      8.50569        -0.013708      0.058944      0.455263
O     10.54374     17.39634      8.50569         0.060814     -0.095588      0.373862
O     10.54374      3.58206     12.47271         0.027586     -0.120337     -0.149011
O     10.43466     17.39634     12.47271        -0.029190     -0.169548     -0.519283
O      8.50569     10.43466      3.58206         0.271317     -0.022101      0.010562
O      8.50569     10.54374     17.39634         0.752843     -0.033106     -0.173744
O     12.47271     10.54374      3.58206        -0.813194      0.098392      0.086895
O     12.47271     10.43466     17.39634        -0.473286      0.033382     -0.080414
O      3.58206      8.50569     10.43466         0.159403      1.068715     -0.030418
O     17.39634      8.50569     10.54374        -0.158331      0.581098      0.069562
O      3.58206     12.47271     10.54374         0.103522     -0.435256      0.041486
O     17.39634     12.47271     10.43466        -0.146905     -0.544062     -0.030093
O      3.58206     10.43466      8.50569         0.073554     -0.089087      0.612299
O     17.39634     10.54374      8.50569        -0.047688      0.088292      0.441263
O      3.58206     10.54374     12.47271         0.007219      0.033885     -0.490483
O     17.39634     10.43466     12.47271        -0.233785     -0.044991     -0.651503
O     10.43466      8.50569      3.58206        -0.038546      0.450323      0.139880
O     10.54374      8.50569     17.39634        -0.044912      0.673485     -0.206195
O     10.54374     12.47271      3.58206         0.038428     -1.006744      0.112368
O     10.43466     12.47271     17.39634         0.055914     -0.796577     -0.210181
O      8.50569      3.58206     10.43466         0.565245      0.155065     -0.055051
O      8.50569     17.39634     10.54374         0.523695     -0.182034      0.002375
O     12.47271      3.58206     10.54374        -0.605598      0.195218      0.002591
O     12.47271     17.39634     10.43466        -0.246300      0.066938     -0.044271
O     11.90042     11.90042     19.56718        -0.260556     -0.304650      0.232102
O     19.56718     19.56718     19.56718         0.323677      0.295587      0.257611
O     19.56718     11.90042     11.90042         0.314600     -0.261093     -0.236614
O     11.90042     19.56718     11.90042        -0.237549      0.301776     -0.326982
O      9.45224      1.03696      9.45224         0.001476      0.073073     -0.123264
O      1.03696      9.45224      9.45224         0.087688     -0.072614     -0.161639
O      1.03696      1.03696      1.03696         0.112186      0.169562      0.030031
O      9.45224      9.45224      1.03696        -0.095218     -0.111587      0.015989
Zr     10.48920      2.52580     10.48920        -0.097669     -0.228422     -0.015319
Zr     10.48920     18.45260     10.48920        -0.098677      0.186928      0.161048
Zr     10.48920     10.48920      2.52580        -0.109218     -0.435886     -0.213513
Zr     10.48920     10.48920     18.45260        -0.175099     -0.006845      0.413137
Zr      2.52580     10.48920     10.48920        -0.348912      0.274863      0.283857
Zr     18.45260     10.48920     10.48920         0.168807      0.008503     -0.122695
Pd     13.62442      8.95002      9.14867        -0.004505     -0.005297      0.016316
Pd      5.70397      9.75307     10.01670        -0.010298      0.019552      0.013899
Pd      6.82276     11.51120     11.70250        -0.022137      0.071553     -0.012541
Pd     12.18850     13.10748      7.33374        -0.001675     -0.005445      0.001026
Pd     12.06984      7.87306      7.21950        -0.015611     -0.007164      0.028872
Pd      8.29211      7.05293      6.56543        -0.001056     -0.004219      0.004784
Pd     10.88680     11.28219      5.57959        -0.000785     -0.006876      0.003263
Pd     14.61770      8.53206      6.70812        -0.017091     -0.000023      0.012616
Pd      9.64751     11.80184      7.99976         0.003086     -0.002188      0.000145
Pd      6.74374      6.78355     12.28740         0.036199      0.002977     -0.015726
Pd      6.38146      7.59248      8.27213        -0.000736      0.013564      0.000572
Pd      6.92517      8.77647     13.97394        -0.050376     -0.054272      0.061721
Pd     11.60473      6.54178      9.53053        -0.024497     -0.007200      0.037724
Pd      9.73476      9.29399      6.90737        -0.012521     -0.001719      0.017599
Pd      9.02098     13.96704      9.40328        -0.001805      0.002484     -0.009480
Pd      9.91814      7.13800     11.57976        -0.079204      0.042008      0.029888
Pd     10.52132      8.97071      9.56474        -0.002692      0.001589      0.017172
Pd      9.34695     11.30121     10.60330        -0.002924      0.024604     -0.000374
Pd      8.88133      7.00189      9.13422        -0.001670     -0.000481      0.002274
Pd      8.73138      6.83215     13.96087        -0.026599     -0.048205      0.064735
Pd      7.97816      9.02185     11.49090        -0.049254      0.079540      0.064749
Pd     11.96001     10.51155      7.83634         0.001586     -0.007040      0.000800
Pd      7.13695     12.05591      9.12022        -0.001505     -0.000076     -0.022595
Pd      8.02907      9.58804      8.83730         0.005697     -0.010460      0.043622
Pd     14.14470      6.49206      8.45553        -0.020655     -0.004832      0.007317
Pd     12.52056      8.25267     11.47807        -0.019171     -0.002145      0.008219
Pd      8.79632     11.37583     13.42115        -0.019943      0.022466     -0.011932
Pd     13.90119     11.92917      9.03681         0.004129      0.000899     -0.004705
Pd     12.87274     10.57571     13.09061         0.004912      0.005533     -0.002652
Pd     14.72948     10.32814     11.13784         0.008222      0.008885     -0.000449
Pd     12.05665     10.74089     10.58667         0.003132      0.009307     -0.005641
Pd     11.44934     13.15830      9.86295         0.001629      0.011062     -0.000334
Pd     13.56599     12.82096     11.66803         0.003038      0.006446     -0.001369
Pd     11.03899     12.53353     12.44462         0.002811      0.003425     -0.000722
Pd     11.07498     11.33992     14.87578        -0.019864     -0.018633     -0.008716
Pd     10.46762      9.55774     12.53167        -0.003352      0.033458     -0.018109
Pd      9.41820      9.27911     14.92468        -0.021120     -0.012612     -0.054583
Pd      8.65303     13.57030     11.99595         0.015518      0.034532      0.000191
