152
# total energy = -1023.37895063 eVH     10.35389      5.87395      7.64558         0.486411      0.082840      0.732211
H     10.62451     15.10445      7.64558        -0.036744     -0.126964      0.673256
H     10.62451      5.87395     13.33282         0.140412      0.151328     -0.623874
H     10.35389     15.10445     13.33282        -0.287591     -0.065640     -0.678474
H      7.64558     10.35389      5.87395         0.300709     -0.020301      0.183212
H      7.64558     10.62451     15.10445         0.897647     -0.350258     -0.021995
H     13.33282     10.62451      5.87395        -0.748436     -0.038226      0.189661
H     13.33282     10.35389     15.10445        -0.605130     -0.175100     -0.013120
H      5.87395      7.64558     10.35389         0.207430      0.895871     -0.144195
H     15.10445      7.64558     10.62451        -0.157419      0.416014     -0.070611
H      5.87395     13.33282     10.62451         0.178124     -0.461873     -0.066483
H     15.10445     13.33282     10.35389        -0.118632     -0.912741      0.083198
H      5.87395     10.35389      7.64558         0.138825      0.103782      0.443335
H     15.10445     10.62451      7.64558         0.101574      0.041010      1.146370
H      5.87395     10.62451     13.33282         0.136844     -0.033925     -0.379675
H     15.10445     10.35389     13.33282        -0.122950     -0.086621     -0.588759
H     10.35389      7.64558      5.87395        -0.026956      0.852059      0.214141
H     10.62451      7.64558     15.10445         0.009051      0.339444     -0.179098
H     10.62451     13.33282      5.87395        -0.020467     -0.554289      0.214855
H     10.35389     13.33282     15.10445        -0.587678     -0.862332     -0.059579
H      7.64558      5.87395     10.35389         0.460864      0.105731      0.023392
H      7.64558     15.10445     10.62451         0.801436     -0.285082      0.045810
H     13.33282      5.87395     10.62451        -0.446583      0.176582     -0.055945
H     13.33282     15.10445     10.35389        -0.621844     -0.084114      0.193857
H     12.45634     12.45634     19.01126         0.247343      0.276418     -0.226678
H     19.01126     19.01126     19.01126        -0.252496     -0.237282     -0.255416
H     19.01126     12.45634     12.45634        -0.242373      0.274512      0.231030
H     12.45634     19.01126     12.45634         0.227222     -0.261993      0.245845
C     10.35284      5.61067      6.59456        -0.213807     -0.462023      0.013046
C     10.62556     15.36773      6.59456         0.048420      0.404623     -0.945527
C     10.62556      5.61067     14.38384        -0.056477     -0.153191      0.761414
C     10.35284     15.36773     14.38384         0.062974      0.815409      0.342096
C      6.59456     10.35284      5.61067        -0.376039     -0.036863     -0.219270
C      6.59456     10.62556     15.36773        -1.060362      0.377791      0.422062
C     14.38384     10.62556      5.61067         0.394448      0.279681     -0.566714
C     14.38384     10.35284     15.36773         0.827993     -0.099704      0.396082
C      5.61067      6.59456     10.35284        -0.329366     -0.573947      0.404016
C     15.36773      6.59456     10.62556         0.163809     -0.509571      0.044577
C      5.61067     14.38384     10.62556        -0.114382      0.448342     -0.008113
C     15.36773     14.38384     10.35284         0.304238     -0.137605     -0.181232
C      5.61067     10.35284      6.59456        -0.264694     -0.025204     -0.784985
C     15.36773     10.62556      6.59456         0.656043     -0.328216     -1.338808
C      5.61067     10.62556     14.38384        -0.476341     -0.016090      0.237427
C     15.36773     10.35284     14.38384         0.606676     -0.138146      1.306940
C     10.35284      6.59456      5.61067        -0.227666     -0.549665     -0.630872
C     10.62556      6.59456     15.36773         0.037115     -0.372919      0.193657
C     10.62556     14.38384      5.61067         0.131171      1.072124     -0.445999
C     10.35284     14.38384     15.36773         0.144043      0.408670      0.713157
C      6.59456      5.61067     10.35284        -0.259896     -0.812984      0.072335
C      6.59456     15.36773     10.62556        -1.339201      0.351703      0.071478
C     14.38384      5.61067     10.62556         0.648185     -0.239280      0.008383
C     14.38384     15.36773     10.35284        -0.450371      0.656356     -0.366355
C     10.40319      3.19606      7.29314         0.017776      0.912070     -0.354109
C     10.35913      4.25547      6.23373         0.012914     -0.450846      0.592147
C      0.08601      7.29314      7.29314        -0.003492     -0.382019     -0.432980
C      0.13007      6.23373      6.23373         0.005338      0.063844      0.135046
C      0.08601      3.19606      3.19606        -0.014082      0.727061      0.178903
C      0.13007      4.25547      4.25547        -0.079231     -0.175417     -0.228805
C     10.40319      7.29314      3.19606         0.005045     -0.827112      0.518522
C     10.35913      6.23373      4.25547         0.016199      0.421200     -0.620472
C      7.29314     10.40319      3.19606        -0.351204      0.036307      0.908544
C      6.23373     10.35913      4.25547         0.205261      0.058484     -0.112190
C      7.29314      0.08601      7.29314        -0.394086     -0.034305     -0.284311
C      6.23373      0.13007      6.23373         0.426026     -0.054488      0.445969
C      3.19606      0.08601      3.19606         0.640978     -0.025978      0.484115
C      4.25547      0.13007      4.25547        -0.094512     -0.050087     -0.407524
C      3.19606     10.40319      7.29314         0.763509     -0.003606     -0.568678
C      4.25547     10.35913      6.23373        -0.199522      0.061052      0.144827
C      3.19606      7.29314     10.40319         0.556911     -1.305854     -0.029052
C      4.25547      6.23373     10.35913        -0.546911      0.840693      0.057753
C      7.29314      7.29314      0.08601        -0.570464     -0.223992     -0.016119
C      6.23373      6.23373      0.13007         0.183455      0.150024     -0.003920
C      3.19606      3.19606      0.08601         0.249157      0.314086     -0.023819
C      4.25547      4.25547      0.13007        -0.064602     -0.043446      0.004627
C      7.29314      3.19606     10.40319        -0.362908      0.767313      0.007373
C      6.23373      4.25547     10.35913         1.059046      0.033540      0.001716
O     10.43466      3.58206      8.50569        -0.043660      0.028697      0.390927
O     10.54374     17.39634      8.50569        -0.025097     -0.128464      0.515611
O     10.54374      3.58206     12.47271         0.048678      0.035520     -0.274395
O     10.43466     17.39634     12.47271        -0.034061     -0.097868     -0.573590
O      8.50569     10.43466      3.58206         0.343778     -0.029116     -0.029021
O      8.50569     10.54374     17.39634         0.510773      0.038073     -0.151702
O     12.47271     10.54374      3.58206        -0.597587     -0.014283      0.155453
O     12.47271     10.43466     17.39634        -0.750456     -0.013610     -0.130515
O      3.58206      8.50569     10.43466         0.157944      1.108993      0.009680
O     17.39634      8.50569     10.54374        -0.041594      0.357794      0.070889
O      3.58206     12.47271     10.54374         0.082117     -0.497005      0.036426
O     17.39634     12.47271     10.43466        -0.159918     -0.741425      0.017713
O      3.58206     10.43466      8.50569        -0.050035     -0.067836      0.436972
O     17.39634     10.54374      8.50569        -0.120824      0.043626      0.424744
O      3.58206     10.54374     12.47271         0.060384      0.002239     -0.486169
O     17.39634     10.43466     12.47271        -0.214862      0.049426     -0.767534
O     10.43466      8.50569      3.58206         0.064522      0.766422      0.193593
O     10.54374      8.50569     17.39634         0.071191      0.546501     -0.100644
O     10.54374     12.47271      3.58206        -0.016523     -0.784506      0.231329
O     10.43466     12.47271     17.39634         0.025451     -0.957687     -0.235630
O      8.50569      3.58206     10.43466         0.510453      0.080724     -0.025754
O      8.50569     17.39634     10.54374         0.635644     -0.235937     -0.033653
O     12.47271      3.58206     10.54374        -0.448384      0.137240      0.045998
O     12.47271     17.39634     10.43466        -0.455806      0.019332     -0.014789
O     11.90042     11.90042     19.56718        -0.273099     -0.326646      0.245142
O     19.56718     19.56718     19.56718         0.287585      0.272507      0.303152
O     19.56718     11.90042     11.90042         0.270781     -0.328678     -0.225259
O     11.90042     19.56718     11.90042        -0.271709      0.284241     -0.265954
O      9.45224      1.03696      9.45224        -0.079290      0.046301     -0.066380
O      1.03696      9.45224      9.45224         0.052428     -0.157846     -0.094607
O      1.03696      1.03696      1.03696         0.015773      0.058199      0.179978
O      9.45224      9.45224      1.03696        -0.053514     -0.086979      0.128382
Zr     10.48920      2.52580     10.48920        -0.030297     -0.076749     -0.072739
Zr     10.48920     18.45260     10.48920         0.091600      0.283857      0.001168
Zr     10.48920     10.48920      2.52580         0.010035     -0.046520     -0.458656
Zr     10.48920     10.48920     18.45260        -0.225585     -0.033117      0.447720
Zr      2.52580     10.48920     10.48920        -0.393835      0.264457      0.052466
Zr     18.45260     10.48920     10.48920         0.224257      0.055080     -0.297730
Pd      8.76677     10.00484     13.38971        -0.030282     -0.352283     -0.216602
Pd     10.56081      9.55310     10.48912         0.231274      0.534569      0.187574
Pd     13.61984      8.62198     12.57338        -0.074624      0.092112     -0.147022
Pd     10.87729     10.75191     15.12664        -0.018314      0.063654     -0.354018
Pd     12.95207     11.23462     13.18444        -0.098500     -0.169606      0.206988
Pd     15.02172     10.81094     11.35016        -0.167943      0.054943     -0.222338
Pd      6.57907      7.83426     12.41931         0.215723      0.074914      0.034960
Pd      9.28717      7.22391      9.74000         0.043414      0.004878     -0.040207
Pd      9.27820      7.46849     12.48138        -0.001058     -0.098032      0.183145
Pd     11.66465      7.30903     11.26617         0.227244     -0.357985      0.132933
Pd     11.73737      7.86472      8.63686        -0.160602     -0.225119      0.056088
Pd      7.35052     11.75283     11.70399        -0.117164     -0.107027     -0.159432
Pd      9.28403     14.61236      9.51879        -0.197610      0.131589      0.005993
Pd      8.15870     12.44300     14.26141         0.009843      0.128541      0.075758
Pd     14.14651     14.23705      8.30413        -0.048620     -0.124843      0.097765
Pd     11.59022     13.56060      8.81868         0.027107     -0.091464     -0.083801
Pd     14.17143     11.64166      8.91185        -0.235084      0.032000      0.039137
Pd      8.76668     13.97143     12.19850        -0.136199     -0.026891     -0.125342
Pd     12.16215     13.66869     14.16915         0.165783     -0.176909     -0.358284
Pd     11.36998     14.25391     11.49431         0.070524     -0.160365     -0.055565
Pd     13.97810     13.49872     12.22315         0.223293      0.257501     -0.002597
Pd     12.37371     11.92580     10.75243         0.041370     -0.454375      0.386576
Pd     12.74240     12.56593      6.68628         0.079534     -0.026271     -0.028864
Pd     13.98050      8.94162      7.77958        -0.024766      0.021067      0.054255
Pd      6.97929      8.46292      8.70113         0.018272     -0.100599     -0.206939
Pd      5.65326     10.08049     10.42377        -0.024393      0.078524      0.096337
Pd      9.40654      9.35471      7.83573        -0.036543     -0.029261      0.113550
Pd      8.49274      6.94715      7.16510         0.022170     -0.199591     -0.205011
Pd      9.74523     12.04871     10.45637         0.008799     -0.000338     -0.156006
Pd     11.64856     10.69056      8.31717         0.278545      0.393738      0.024471
Pd     11.67454      9.00051      6.22519        -0.020203      0.204284     -0.079317
Pd     10.18500     11.30897      6.20152         0.183602     -0.236637     -0.732943
Ir     11.17591      9.27948     12.97614        -0.218748      0.757764     -0.267849
Ir     13.16821      9.46359     10.16188         0.136084      0.011253      0.075017
Ir     10.44875     12.07379     12.87783         0.382758     -0.416542     -0.173773
Ir      7.75133     10.95440      9.13785        -0.026664     -0.069390      0.107417
Ir      9.08170     12.52349      8.00178         0.084209      0.171192      1.040581
Ir      8.15061      9.26673     10.97579        -0.365199      0.229384     -0.037885
