36
# total energy = -265.52980440 eVH      5.49324      0.00000      7.50000         0.046462      0.000000      0.000000
H     10.62446      0.00000      7.50000        -0.046462     -0.000000      0.000000
H      0.00000      5.49324      7.50000         0.000000      0.046462      0.000000
H      0.00000     10.62446      7.50000         0.000000     -0.046462      0.000000
C      8.79217     14.93467      7.50000         0.029477      0.006498      0.000000
C      7.32553      1.18303      7.50000        -0.029477     -0.006498     -0.000000
C      1.18303      8.79217      7.50000        -0.006498      0.029477      0.000000
C     14.93467      7.32553      7.50000         0.006498     -0.029477     -0.000000
C      7.32553     14.93467      7.50000        -0.029477      0.006498     -0.000000
C      8.79217      1.18303      7.50000         0.029477     -0.006498      0.000000
C     14.93467      8.79217      7.50000         0.006498      0.029477     -0.000000
C      1.18303      7.32553      7.50000        -0.006498     -0.029477     -0.000000
C      9.53400      0.00000      7.50000         0.015413      0.000000      0.000000
C      6.58370     -0.00000      7.50000        -0.015413      0.000000      0.000000
C      0.00000      9.53400      7.50000         0.000000      0.015413      0.000000
C      0.00000      6.58370      7.50000         0.000000     -0.015413      0.000000
C      8.05885      7.00782      7.50000         0.000000     -0.097092      0.000000
C      8.05885      9.10988      7.50000        -0.000000      0.097092      0.000000
C      9.10988      8.05885      7.50000         0.097092      0.000000      0.000000
C      7.00782      8.05885      7.50000        -0.097092     -0.000000      0.000000
N      5.72751      8.05885      7.50000         0.029082      0.000000      0.000000
N     10.39019      8.05885      7.50000        -0.029082      0.000000      0.000000
N      8.05885      5.72751      7.50000        -0.000000      0.029082      0.000000
N      8.05885     10.39019      7.50000        -0.000000     -0.029082      0.000000
O      6.80927      2.38645      7.50000        -0.003864     -0.007022     -0.000000
O      9.30843     13.73125      7.50000         0.003864      0.007022      0.000000
O     13.73125      6.80927      7.50000         0.007022     -0.003864      0.000000
O      2.38645      9.30843      7.50000        -0.007022      0.003864     -0.000000
O      9.30843      2.38645      7.50000         0.003864     -0.007022      0.000000
O      6.80927     13.73125      7.50000        -0.003864      0.007022     -0.000000
O      2.38645      6.80927      7.50000        -0.007022     -0.003864     -0.000000
O     13.73125      9.30843      7.50000         0.007022      0.003864      0.000000
Ir      3.95312      8.05885      7.50000         0.048240      0.000000      0.000000
Ir     12.16458      8.05885      7.50000        -0.048240     -0.000000      0.000000
Ir      8.05885      3.95312      7.50000         0.000000      0.048240      0.000000
Ir      8.05885     12.16458      7.50000        -0.000000     -0.048240      0.000000
