152
# total energy = -1005.97248282 eVH     10.35389      5.87395      7.64558         0.252414      0.038309      0.638749
H     10.62451     15.10445      7.64558        -0.109875     -0.143472      0.531539
H     10.62451      5.87395     13.33282         0.488840      0.120544     -0.586866
H     10.35389     15.10445     13.33282         0.069209     -0.184794     -0.541939
H      7.64558     10.35389      5.87395         0.369623      0.039501      0.173561
H      7.64558     10.62451     15.10445         0.688521      0.468490     -0.042957
H     13.33282     10.62451      5.87395        -0.531568      0.416303      0.074533
H     13.33282     10.35389     15.10445        -0.795954     -0.092589     -0.000106
H      5.87395      7.64558     10.35389         0.254956      0.826668     -0.248279
H     15.10445      7.64558     10.62451        -0.095681      0.485351      0.284285
H      5.87395     13.33282     10.62451         0.155558     -0.697676     -0.163797
H     15.10445     13.33282     10.35389        -0.003140     -1.048477     -0.330073
H      5.87395     10.35389      7.64558         0.249299      0.119946      0.580986
H     15.10445     10.62451      7.64558        -0.112816      0.409377      0.771579
H      5.87395     10.62451     13.33282         0.142185      0.338958     -0.693428
H     15.10445     10.35389     13.33282        -0.037798     -0.073783     -0.704250
H     10.35389      7.64558      5.87395         0.358741      1.052949     -0.007957
H     10.62451      7.64558     15.10445         0.536863      0.536565     -0.117591
H     10.62451     13.33282      5.87395        -0.398411     -0.834980      0.190430
H     10.35389     13.33282     15.10445        -0.042314     -0.432457     -0.217010
H      7.64558      5.87395     10.35389         0.854115      0.085049     -0.286488
H      7.64558     15.10445     10.62451         0.825871     -0.202135     -0.001429
H     13.33282      5.87395     10.62451        -0.791869      0.187988      0.593814
H     13.33282     15.10445     10.35389        -0.443348     -0.106072     -0.136218
H     12.45634     12.45634     19.01126         0.235432      0.271125     -0.239402
H     19.01126     19.01126     19.01126        -0.262009     -0.240665     -0.261464
H     19.01126     12.45634     12.45634        -0.267056      0.268258      0.220079
H     12.45634     19.01126     12.45634         0.232678     -0.257106      0.276006
C     10.35284      5.61067      6.59456        -0.429901     -0.681198      0.134515
C     10.62556     15.36773      6.59456         0.066874      0.362367     -0.310581
C     10.62556      5.61067     14.38384        -0.328303     -0.379306     -0.292622
C     10.35284     15.36773     14.38384        -0.006160      0.340562      0.531650
C      6.59456     10.35284      5.61067        -0.303317     -0.006164     -0.310936
C      6.59456     10.62556     15.36773        -0.244815     -0.216692      0.789760
C     14.38384     10.62556      5.61067        -0.230453     -0.395424     -0.528466
C     14.38384     10.35284     15.36773         0.968484     -0.066022      0.256236
C      5.61067      6.59456     10.35284        -0.534951     -0.011668     -0.000462
C     15.36773      6.59456     10.62556         0.538803      0.013470     -0.249582
C      5.61067     14.38384     10.62556        -0.317835      0.979175      0.080857
C     15.36773     14.38384     10.35284         0.295855      1.049092      0.049682
C      5.61067     10.35284      6.59456        -0.196148     -0.175860     -0.610200
C     15.36773     10.62556      6.59456         0.445425     -0.271768      0.115148
C      5.61067     10.62556     14.38384        -0.691832     -0.343208     -0.090943
C     15.36773     10.35284     14.38384         0.381725     -0.063993      1.026145
C     10.35284      6.59456      5.61067        -0.217671     -0.304168     -0.655835
C     10.62556      6.59456     15.36773        -0.267063      0.131007      0.455181
C     10.62556     14.38384      5.61067         0.195240      1.061785     -0.344368
C     10.35284     14.38384     15.36773         0.014247      0.544840      0.440568
C      6.59456      5.61067     10.35284        -0.128866     -0.772798      0.260004
C      6.59456     15.36773     10.62556        -1.000380      0.281056      0.080270
C     14.38384      5.61067     10.62556         0.492495     -0.554518     -0.368803
C     14.38384     15.36773     10.35284         0.219363      0.461543     -0.098365
C     10.40319      3.19606      7.29314         0.014493      0.673746     -0.479146
C     10.35913      4.25547      6.23373         0.088454     -0.717246     -0.019152
C      0.08601      7.29314      7.29314        -0.044512     -0.407856     -0.315616
C      0.13007      6.23373      6.23373        -0.022972      0.090410      0.574695
C      0.08601      3.19606      3.19606        -0.011293      1.280759      0.284844
C      0.13007      4.25547      4.25547         0.050978     -0.780680     -0.158436
C     10.40319      7.29314      3.19606         0.011570     -0.320646      0.323221
C     10.35913      6.23373      4.25547         0.024726      0.006842     -0.828594
C      7.29314     10.40319      3.19606        -0.311265      0.022606      0.562245
C      6.23373     10.35913      4.25547         0.194579      0.064538     -0.083224
C      7.29314      0.08601      7.29314        -0.512355     -0.065404     -0.377633
C      6.23373      0.13007      6.23373         0.676801     -0.056643      0.477522
C      3.19606      0.08601      3.19606         0.740255     -0.033186      0.570987
C      4.25547      0.13007      4.25547        -0.583580     -0.087960     -0.542380
C      3.19606     10.40319      7.29314         0.478785     -0.012305     -0.763043
C      4.25547     10.35913      6.23373        -0.371536      0.059929      0.196826
C      3.19606      7.29314     10.40319         0.296981     -1.280074      0.046898
C      4.25547      6.23373     10.35913        -0.804345      0.110129      0.149092
C      7.29314      7.29314      0.08601        -0.407920     -0.376589     -0.026607
C      6.23373      6.23373      0.13007         0.464328      0.216131     -0.015446
C      3.19606      3.19606      0.08601         0.486905      0.375841     -0.041333
C      4.25547      4.25547      0.13007        -0.158222     -0.648169     -0.035431
C      7.29314      3.19606     10.40319        -0.327049      0.441498      0.076630
C      6.23373      4.25547     10.35913         0.292396     -0.680191      0.147543
O     10.43466      3.58206      8.50569        -0.018304      0.107201      0.503249
O     10.54374     17.39634      8.50569         0.036198     -0.175366      0.488263
O     10.54374      3.58206     12.47271         0.053231     -0.091157     -0.182628
O     10.43466     17.39634     12.47271        -0.039135     -0.183522     -0.540190
O      8.50569     10.43466      3.58206         0.298864     -0.005934      0.024377
O      8.50569     10.54374     17.39634         0.625048      0.035467     -0.143514
O     12.47271     10.54374      3.58206        -0.717082      0.085800      0.095064
O     12.47271     10.43466     17.39634        -0.437384      0.024128     -0.108483
O      3.58206      8.50569     10.43466         0.175540      1.042652     -0.038902
O     17.39634      8.50569     10.54374        -0.160541      0.541920      0.076439
O      3.58206     12.47271     10.54374         0.085986     -0.371081      0.049579
O     17.39634     12.47271     10.43466        -0.156696     -0.546196     -0.022611
O      3.58206     10.43466      8.50569         0.079537     -0.068457      0.590396
O     17.39634     10.54374      8.50569        -0.111431      0.066421      0.527121
O      3.58206     10.54374     12.47271         0.037849      0.046306     -0.517959
O     17.39634     10.43466     12.47271        -0.224212     -0.038243     -0.608121
O     10.43466      8.50569      3.58206        -0.040145      0.450539      0.137318
O     10.54374      8.50569     17.39634         0.051178      0.532471     -0.158921
O     10.54374     12.47271      3.58206         0.005599     -1.024196      0.200469
O     10.43466     12.47271     17.39634         0.040904     -0.721057     -0.174269
O      8.50569      3.58206     10.43466         0.510745      0.146416     -0.055520
O      8.50569     17.39634     10.54374         0.486712     -0.195496      0.015101
O     12.47271      3.58206     10.54374        -0.630142      0.228216      0.011107
O     12.47271     17.39634     10.43466        -0.225751      0.065983     -0.053984
O     11.90042     11.90042     19.56718        -0.239288     -0.290190      0.247614
O     19.56718     19.56718     19.56718         0.310885      0.295435      0.301885
O     19.56718     11.90042     11.90042         0.292288     -0.264103     -0.232930
O     11.90042     19.56718     11.90042        -0.241595      0.291340     -0.328230
O      9.45224      1.03696      9.45224        -0.018600      0.088629     -0.072899
O      1.03696      9.45224      9.45224         0.092196     -0.091766     -0.135898
O      1.03696      1.03696      1.03696         0.091640      0.189037      0.050842
O      9.45224      9.45224      1.03696        -0.108239     -0.104804      0.034995
Zr     10.48920      2.52580     10.48920        -0.127422     -0.286277     -0.037912
Zr     10.48920     18.45260     10.48920        -0.074929      0.215225      0.078024
Zr     10.48920     10.48920      2.52580         0.018606     -0.402642     -0.258887
Zr     10.48920     10.48920     18.45260        -0.281024     -0.091462      0.321601
Zr      2.52580     10.48920     10.48920        -0.382094      0.239049      0.285825
Zr     18.45260     10.48920     10.48920         0.235840     -0.003859     -0.223555
Pd     13.59921      8.95946      9.23610         0.004319      0.007174     -0.005060
Pd      5.63168      9.87754     10.14623         0.000046     -0.004750      0.001448
Pd      6.78385     11.85842     11.70221        -0.003905     -0.002676      0.002778
Pd     12.06511     13.01362      7.37135         0.004628     -0.003416     -0.006229
Pd     11.88550      7.73648      7.45924        -0.000670      0.005112     -0.000957
Pd      8.31267      6.86188      6.58948        -0.003447      0.005159     -0.011373
Pd     10.65379     11.17587      5.64102        -0.008837     -0.001580      0.002866
Pd     14.40087      8.55179      6.75322         0.001720     -0.000849     -0.003614
Pd      9.68219     11.72972      8.11399        -0.004997      0.002183      0.004946
Pd      6.76575      6.79979     12.31939        -0.007508     -0.000906      0.002510
Pd      6.52376      8.02097      8.09037         0.011353      0.034515     -0.030281
Pd      6.53804      8.50125     14.35344        -0.006796     -0.002180      0.004665
Pd     11.50074      6.52569      9.93281        -0.002474     -0.002919     -0.001713
Pd      9.52373      9.20500      7.14012        -0.008023      0.001898      0.005842
Pd      8.98282     13.98522      9.31820         0.000426      0.003090      0.004938
Pd      9.48012      7.37150     11.72887        -0.004359     -0.001150     -0.003762
Pd     10.61406      8.98755      9.68341        -0.000461     -0.004693      0.001057
Pd      9.33847     11.53297     10.69779        -0.000859      0.004511      0.003862
Pd      8.90685      7.04971      9.15305        -0.008758      0.002779     -0.007100
Pd      8.55280      6.57469     14.24781         0.000241      0.002769     -0.004868
Pd      7.65837      9.33445     11.97728        -0.005685     -0.002929      0.009330
Pd     11.98023     10.38121      7.72882        -0.008307      0.001090      0.003281
Pd      7.13472     12.01422      9.05443        -0.001641      0.001217      0.003940
Pd      8.12179      9.60385      9.36861         0.001450      0.002725      0.015989
Pd     14.02422      6.48423      8.51477        -0.002612      0.003836      0.000828
Pd     12.60614      8.38369     11.59090        -0.001437      0.003239     -0.004779
Pd      8.77212     11.57585     13.40222        -0.003174      0.003260      0.001007
Pd     13.89430     11.94455      8.96132        -0.001849     -0.005834      0.003146
Pd     12.95962     10.69283     13.05730        -0.007730      0.002160      0.004929
Pd     14.79463     10.44795     11.09372        -0.005408     -0.002128      0.009460
Pd     12.08269     10.89749     10.52346        -0.004898     -0.001968      0.004983
Pd     11.44040     13.35030      9.93618         0.002361     -0.003878     -0.007347
Pd     13.60334     12.92368     11.62722        -0.001507     -0.001757      0.000505
Pd     11.12560     12.60472     12.53554        -0.002919      0.005464     -0.001221
Pd     10.96025     11.05422     14.81112        -0.007299      0.003422      0.001155
Pd     10.51591      9.74776     12.37639        -0.004119     -0.004316      0.002808
Pd      9.08934      9.13872     14.41123        -0.006537      0.002888      0.003953
Pd      8.83248     13.84791     12.01216        -0.004649      0.004245      0.004602
