152
# total energy = -1005.98754359 eVH     10.35389      5.87395      7.64558         0.257768      0.037415      0.637317
H     10.62451     15.10445      7.64558        -0.108552     -0.142660      0.524099
H     10.62451      5.87395     13.33282         0.486231      0.120794     -0.584313
H     10.35389     15.10445     13.33282         0.072220     -0.184554     -0.547526
H      7.64558     10.35389      5.87395         0.370764      0.054399      0.171323
H      7.64558     10.62451     15.10445         0.691948      0.471427     -0.041749
H     13.33282     10.62451      5.87395        -0.531484      0.418722      0.076127
H     13.33282     10.35389     15.10445        -0.801479     -0.095577      0.006316
H      5.87395      7.64558     10.35389         0.247465      0.753771     -0.328892
H     15.10445      7.64558     10.62451        -0.094804      0.484339      0.285397
H      5.87395     13.33282     10.62451         0.157919     -0.698269     -0.159945
H     15.10445     13.33282     10.35389        -0.005771     -1.039507     -0.329175
H      5.87395     10.35389      7.64558         0.255397      0.191793      0.646640
H     15.10445     10.62451      7.64558        -0.110564      0.406959      0.765763
H      5.87395     10.62451     13.33282         0.139553      0.332818     -0.695703
H     15.10445     10.35389     13.33282        -0.044596     -0.075660     -0.698176
H     10.35389      7.64558      5.87395         0.375988      1.046058     -0.008316
H     10.62451      7.64558     15.10445         0.536003      0.536065     -0.118972
H     10.62451     13.33282      5.87395        -0.397160     -0.838270      0.188292
H     10.35389     13.33282     15.10445        -0.043592     -0.433371     -0.217162
H      7.64558      5.87395     10.35389         0.851740      0.090725     -0.291449
H      7.64558     15.10445     10.62451         0.831502     -0.199805      0.003629
H     13.33282      5.87395     10.62451        -0.798299      0.191528      0.589703
H     13.33282     15.10445     10.35389        -0.444557     -0.108141     -0.135231
H     12.45634     12.45634     19.01126         0.235486      0.270817     -0.239579
H     19.01126     19.01126     19.01126        -0.262290     -0.240629     -0.261292
H     19.01126     12.45634     12.45634        -0.266733      0.268616      0.219437
H     12.45634     19.01126     12.45634         0.232371     -0.256364      0.277335
C     10.35284      5.61067      6.59456        -0.432433     -0.700106      0.163955
C     10.62556     15.36773      6.59456         0.064845      0.364822     -0.304890
C     10.62556      5.61067     14.38384        -0.331227     -0.370756     -0.299011
C     10.35284     15.36773     14.38384        -0.007261      0.340200      0.536494
C      6.59456     10.35284      5.61067        -0.266440     -0.005489     -0.348684
C      6.59456     10.62556     15.36773        -0.256158     -0.217670      0.802673
C     14.38384     10.62556      5.61067        -0.253436     -0.397847     -0.521646
C     14.38384     10.35284     15.36773         0.974152     -0.061256      0.254282
C      5.61067      6.59456     10.35284        -0.537641     -0.006079      0.092248
C     15.36773      6.59456     10.62556         0.531163      0.018616     -0.250092
C      5.61067     14.38384     10.62556        -0.329127      0.976810      0.079105
C     15.36773     14.38384     10.35284         0.308686      1.043868      0.049919
C      5.61067     10.35284      6.59456        -0.186572     -0.245253     -0.608851
C     15.36773     10.62556      6.59456         0.445835     -0.280497      0.114967
C      5.61067     10.62556     14.38384        -0.709042     -0.346842     -0.074866
C     15.36773     10.35284     14.38384         0.384085     -0.064011      1.023343
C     10.35284      6.59456      5.61067        -0.215148     -0.254809     -0.655073
C     10.62556      6.59456     15.36773        -0.267147      0.130381      0.450597
C     10.62556     14.38384      5.61067         0.198374      1.061957     -0.347555
C     10.35284     14.38384     15.36773         0.019182      0.543712      0.441838
C      6.59456      5.61067     10.35284        -0.155845     -0.704637      0.246734
C      6.59456     15.36773     10.62556        -1.010520      0.291471      0.079743
C     14.38384      5.61067     10.62556         0.495631     -0.552176     -0.365889
C     14.38384     15.36773     10.35284         0.216307      0.460210     -0.101137
C     10.40319      3.19606      7.29314         0.011898      0.683230     -0.479981
C     10.35913      4.25547      6.23373         0.086566     -0.722553     -0.020977
C      0.08601      7.29314      7.29314        -0.044170     -0.408118     -0.312250
C      0.13007      6.23373      6.23373        -0.022990      0.085754      0.571823
C      0.08601      3.19606      3.19606        -0.014156      1.262962      0.283030
C      0.13007      4.25547      4.25547         0.049988     -0.777597     -0.154652
C     10.40319      7.29314      3.19606         0.011163     -0.329872      0.336198
C     10.35913      6.23373      4.25547         0.026229      0.006681     -0.855286
C      7.29314     10.40319      3.19606        -0.329955      0.022240      0.565675
C      6.23373     10.35913      4.25547         0.203822      0.063357     -0.095603
C      7.29314      0.08601      7.29314        -0.519524     -0.064794     -0.375434
C      6.23373      0.13007      6.23373         0.680048     -0.052002      0.482009
C      3.19606      0.08601      3.19606         0.708361     -0.035232      0.568865
C      4.25547      0.13007      4.25547        -0.579297     -0.084615     -0.547953
C      3.19606     10.40319      7.29314         0.480465     -0.014809     -0.769990
C      4.25547     10.35913      6.23373        -0.426070      0.047391      0.199549
C      3.19606      7.29314     10.40319         0.292152     -1.273193      0.043723
C      4.25547      6.23373     10.35913        -0.751120      0.107379      0.153353
C      7.29314      7.29314      0.08601        -0.407611     -0.373073     -0.027376
C      6.23373      6.23373      0.13007         0.468043      0.213992     -0.018359
C      3.19606      3.19606      0.08601         0.492068      0.374463     -0.040308
C      4.25547      4.25547      0.13007        -0.155707     -0.648193     -0.034654
C      7.29314      3.19606     10.40319        -0.324357      0.433203      0.076619
C      6.23373      4.25547     10.35913         0.276248     -0.686170      0.143140
O     10.43466      3.58206      8.50569        -0.017423      0.104310      0.502629
O     10.54374     17.39634      8.50569         0.036610     -0.175114      0.485379
O     10.54374      3.58206     12.47271         0.055220     -0.086630     -0.185715
O     10.43466     17.39634     12.47271        -0.038706     -0.183073     -0.550975
O      8.50569     10.43466      3.58206         0.313359     -0.002210      0.028393
O      8.50569     10.54374     17.39634         0.629420      0.034286     -0.144275
O     12.47271     10.54374      3.58206        -0.699526      0.084360      0.094193
O     12.47271     10.43466     17.39634        -0.437973      0.025343     -0.110047
O      3.58206      8.50569     10.43466         0.178877      1.040175     -0.042189
O     17.39634      8.50569     10.54374        -0.160600      0.539572      0.076486
O      3.58206     12.47271     10.54374         0.085255     -0.367281      0.049167
O     17.39634     12.47271     10.43466        -0.156804     -0.546685     -0.022694
O      3.58206     10.43466      8.50569         0.077417     -0.065535      0.590633
O     17.39634     10.54374      8.50569        -0.110527      0.066296      0.524048
O      3.58206     10.54374     12.47271         0.045942      0.049133     -0.524397
O     17.39634     10.43466     12.47271        -0.222105     -0.038757     -0.601994
O     10.43466      8.50569      3.58206        -0.039879      0.459465      0.135856
O     10.54374      8.50569     17.39634         0.050021      0.530632     -0.159701
O     10.54374     12.47271      3.58206         0.001543     -1.015679      0.205045
O     10.43466     12.47271     17.39634         0.041921     -0.728024     -0.175128
O      8.50569      3.58206     10.43466         0.508340      0.146268     -0.054979
O      8.50569     17.39634     10.54374         0.487431     -0.196955      0.014679
O     12.47271      3.58206     10.54374        -0.634382      0.231661      0.010201
O     12.47271     17.39634     10.43466        -0.218735      0.068914     -0.055861
O     11.90042     11.90042     19.56718        -0.239459     -0.289751      0.247393
O     19.56718     19.56718     19.56718         0.310858      0.295332      0.301147
O     19.56718     11.90042     11.90042         0.291074     -0.264718     -0.233073
O     11.90042     19.56718     11.90042        -0.241738      0.290705     -0.331830
O      9.45224      1.03696      9.45224        -0.019476      0.087700     -0.072923
O      1.03696      9.45224      9.45224         0.091486     -0.092297     -0.137451
O      1.03696      1.03696      1.03696         0.089970      0.189515      0.049871
O      9.45224      9.45224      1.03696        -0.109386     -0.102825      0.033576
Zr     10.48920      2.52580     10.48920        -0.128732     -0.288089     -0.036996
Zr     10.48920     18.45260     10.48920        -0.075261      0.215443      0.084652
Zr     10.48920     10.48920      2.52580         0.037803     -0.404095     -0.255235
Zr     10.48920     10.48920     18.45260        -0.277058     -0.091309      0.322807
Zr      2.52580     10.48920     10.48920        -0.378885      0.241158      0.293272
Zr     18.45260     10.48920     10.48920         0.237484     -0.003255     -0.225229
Pd     13.60960      8.97938      9.21871        -0.001456      0.004928     -0.004655
Pd      5.62826      9.87115     10.13968         0.000262     -0.001061     -0.004590
Pd      6.77549     11.85429     11.71010        -0.000574     -0.002563      0.000387
Pd     12.06153     13.00439      7.36779        -0.000200     -0.002865     -0.002571
Pd     11.87924      7.74003      7.46267        -0.002939     -0.000089     -0.002753
Pd      8.31368      6.84733      6.56421         0.001944     -0.005042     -0.009691
Pd     10.61593     11.17111      5.64950        -0.015189     -0.000842      0.000537
Pd     14.39834      8.54976      6.73993         0.000634     -0.000407     -0.003742
Pd      9.67175     11.72922      8.13056        -0.003796      0.001649      0.007645
Pd      6.74912      6.79445     12.32854        -0.006364     -0.001613      0.003652
Pd      6.56121      8.13568      7.99816         0.015919      0.044747     -0.038953
Pd      6.52958      8.49646     14.36870        -0.000320     -0.001147      0.005968
Pd     11.49374      6.52278      9.94637        -0.003299     -0.004445      0.002092
Pd      9.49425      9.20041      7.15638        -0.010255     -0.002184      0.002201
Pd      8.97965     13.98766      9.33622         0.000429     -0.000926      0.009529
Pd      9.45799      7.37088     11.71723        -0.006871     -0.001901     -0.005365
Pd     10.62184      8.97707      9.68454         0.003140     -0.002521     -0.001466
Pd      9.33969     11.54624     10.71744         0.001194      0.007297      0.005898
Pd      8.88814      7.06023      9.13507        -0.009283      0.001574     -0.008119
Pd      8.55326      6.57858     14.24252         0.000714      0.002072     -0.002933
Pd      7.64027      9.32951     12.00369        -0.005856     -0.002539      0.006252
Pd     11.96047     10.37925      7.72473        -0.004113     -0.001374     -0.002999
Pd      7.13023     12.01426      9.06589        -0.000932      0.000538      0.000251
Pd      8.13401      9.61452      9.41765         0.002884      0.003797      0.014726
Pd     14.01811      6.49537      8.52057        -0.002363      0.000556      0.001513
Pd     12.62478      8.40130     11.57833         0.000733      0.002579     -0.003634
Pd      8.76715     11.57553     13.40795        -0.002893      0.000608     -0.000745
Pd     13.88506     11.93001      8.96606        -0.003968     -0.005426     -0.000110
Pd     12.94943     10.70266     13.06864        -0.006173     -0.000761      0.001706
Pd     14.78350     10.44487     11.10955        -0.007579     -0.005470      0.003109
Pd     12.06999     10.89925     10.53270        -0.008097     -0.001394      0.003309
Pd     11.44199     13.34987      9.93309         0.000543     -0.000063     -0.000952
Pd     13.59983     12.92300     11.62776        -0.001056     -0.003131      0.000095
Pd     11.11995     12.61585     12.54052        -0.002478      0.003369      0.000139
Pd     10.95132     11.06081     14.81602        -0.002402      0.002530      0.000608
Pd     10.51183      9.73398     12.38224         0.001248     -0.003920     -0.003610
Pd      9.08473      9.14212     14.42375        -0.002232     -0.002312      0.004768
Pd      8.81867     13.85571     12.03256        -0.007157      0.001276      0.010497
