152
# total energy = -1005.69585591 eVH     10.35389      5.87395      7.64558         0.158382      0.100298      0.562398
H     10.62451     15.10445      7.64558        -0.113339     -0.149275      0.495485
H     10.62451      5.87395     13.33282         0.583815      0.096265     -0.755592
H     10.35389     15.10445     13.33282         0.034442     -0.163053     -0.426045
H      7.64558     10.35389      5.87395         0.353094      0.035337      0.166390
H      7.64558     10.62451     15.10445         0.834834      0.489710     -0.022251
H     13.33282     10.62451      5.87395        -0.446535      0.343918      0.117059
H     13.33282     10.35389     15.10445        -0.850911     -0.072312      0.016859
H      5.87395      7.64558     10.35389         0.303412      1.168112      0.039265
H     15.10445      7.64558     10.62451        -0.105859      0.482730      0.287972
H      5.87395     13.33282     10.62451         0.188078     -0.646854     -0.016887
H     15.10445     13.33282     10.35389        -0.070831     -0.958663     -0.211017
H      5.87395     10.35389      7.64558         0.210293      0.043186      0.449338
H     15.10445     10.62451      7.64558        -0.139068      0.495817      0.781631
H      5.87395     10.62451     13.33282         0.112787      0.357625     -0.879800
H     15.10445     10.35389     13.33282        -0.072484     -0.036250     -0.661673
H     10.35389      7.64558      5.87395         0.338067      1.135803      0.053680
H     10.62451      7.64558     15.10445         0.715678      0.654901     -0.193333
H     10.62451     13.33282      5.87395        -0.399783     -0.798218      0.261326
H     10.35389     13.33282     15.10445        -0.090419     -0.468015     -0.281776
H      7.64558      5.87395     10.35389         0.902091      0.050074     -0.234472
H      7.64558     15.10445     10.62451         0.812097     -0.182462      0.016675
H     13.33282      5.87395     10.62451        -0.742359      0.178453      0.530943
H     13.33282     15.10445     10.35389        -0.380970     -0.116434     -0.100041
H     12.45634     12.45634     19.01126         0.244795      0.270110     -0.234556
H     19.01126     19.01126     19.01126        -0.270381     -0.247370     -0.246337
H     19.01126     12.45634     12.45634        -0.275021      0.264198      0.222046
H     12.45634     19.01126     12.45634         0.235737     -0.263410      0.271822
C     10.35284      5.61067      6.59456        -0.327236     -0.705780     -0.057392
C     10.62556     15.36773      6.59456         0.078428      0.357909     -0.253092
C     10.62556      5.61067     14.38384        -0.158391     -0.504410      0.035110
C     10.35284     15.36773     14.38384         0.012621      0.208229      0.388653
C      6.59456     10.35284      5.61067        -0.381541      0.011359     -0.256797
C      6.59456     10.62556     15.36773        -0.514948      0.002787      0.621186
C     14.38384     10.62556      5.61067        -0.238359     -0.467623     -0.650033
C     14.38384     10.35284     15.36773         1.033535     -0.086658      0.181216
C      5.61067      6.59456     10.35284        -0.693575     -0.185226     -0.358781
C     15.36773      6.59456     10.62556         0.550252      0.003580     -0.308190
C      5.61067     14.38384     10.62556        -0.275261      0.795545      0.003348
C     15.36773     14.38384     10.35284         0.299381      0.966445      0.036778
C      5.61067     10.35284      6.59456        -0.283957     -0.010362     -0.739678
C     15.36773     10.62556      6.59456         0.480157     -0.274965      0.176720
C      5.61067     10.62556     14.38384        -0.613252     -0.132517      0.214680
C     15.36773     10.35284     14.38384         0.427564     -0.040162      1.024268
C     10.35284      6.59456      5.61067        -0.174369     -0.721735     -0.564203
C     10.62556      6.59456     15.36773        -0.118708     -0.286677      0.597841
C     10.62556     14.38384      5.61067         0.206722      1.101443     -0.365151
C     10.35284     14.38384     15.36773        -0.003107      0.803663      0.389639
C      6.59456      5.61067     10.35284         0.005807     -1.060155      0.197760
C      6.59456     15.36773     10.62556        -0.979884      0.231131      0.085193
C     14.38384      5.61067     10.62556         0.337793     -0.541044     -0.370609
C     14.38384     15.36773     10.35284         0.147983      0.406689     -0.075287
C     10.40319      3.19606      7.29314         0.007575      0.826685     -0.465391
C     10.35913      4.25547      6.23373         0.070296     -0.559780      0.089874
C      0.08601      7.29314      7.29314        -0.047458     -0.687419     -0.261658
C      0.13007      6.23373      6.23373        -0.037990      0.154976      0.518900
C      0.08601      3.19606      3.19606         0.013385      1.406976      0.273797
C      0.13007      4.25547      4.25547         0.033044     -0.697534     -0.209266
C     10.40319      7.29314      3.19606         0.005748     -0.329571      0.274018
C     10.35913      6.23373      4.25547         0.026634      0.031825     -0.729308
C      7.29314     10.40319      3.19606        -0.249420      0.017928      0.555097
C      6.23373     10.35913      4.25547         0.148211      0.047312     -0.064429
C      7.29314      0.08601      7.29314        -0.719245     -0.074685     -0.319466
C      6.23373      0.13007      6.23373         0.768288     -0.139939      0.436546
C      3.19606      0.08601      3.19606         0.963082     -0.019962      0.587475
C      4.25547      0.13007      4.25547        -0.558124     -0.070244     -0.598116
C      3.19606     10.40319      7.29314         0.523273     -0.008841     -0.756253
C      4.25547     10.35913      6.23373        -0.276600      0.069365      0.213095
C      3.19606      7.29314     10.40319         0.284542     -1.275452      0.032030
C      4.25547      6.23373     10.35913        -1.023732      0.023938      0.112669
C      7.29314      7.29314      0.08601        -0.428296     -0.411119     -0.016677
C      6.23373      6.23373      0.13007         0.506744      0.236935      0.006468
C      3.19606      3.19606      0.08601         0.456008      0.374499     -0.036368
C      4.25547      4.25547      0.13007        -0.136131     -0.604521     -0.040569
C      7.29314      3.19606     10.40319        -0.366937      0.429250      0.057410
C      6.23373      4.25547     10.35913         0.263626     -0.732292      0.135825
O     10.43466      3.58206      8.50569        -0.012604      0.064595      0.461289
O     10.54374     17.39634      8.50569         0.057817     -0.109821      0.400785
O     10.54374      3.58206     12.47271         0.029961     -0.120641     -0.156537
O     10.43466     17.39634     12.47271        -0.030587     -0.172315     -0.518606
O      8.50569     10.43466      3.58206         0.265092     -0.022448      0.009352
O      8.50569     10.54374     17.39634         0.726066     -0.021866     -0.169843
O     12.47271     10.54374      3.58206        -0.823844      0.099319      0.088575
O     12.47271     10.43466     17.39634        -0.467767      0.032479     -0.082325
O      3.58206      8.50569     10.43466         0.161188      1.057902     -0.027103
O     17.39634      8.50569     10.54374        -0.158423      0.573934      0.071158
O      3.58206     12.47271     10.54374         0.103361     -0.430445      0.045774
O     17.39634     12.47271     10.43466        -0.147919     -0.537593     -0.029148
O      3.58206     10.43466      8.50569         0.078841     -0.087151      0.614735
O     17.39634     10.54374      8.50569        -0.059696      0.086414      0.457658
O      3.58206     10.54374     12.47271         0.000324      0.032085     -0.489233
O     17.39634     10.43466     12.47271        -0.237126     -0.044174     -0.655579
O     10.43466      8.50569      3.58206        -0.038293      0.448495      0.140378
O     10.54374      8.50569     17.39634        -0.031007      0.649200     -0.194498
O     10.54374     12.47271      3.58206         0.041428     -1.016583      0.116791
O     10.43466     12.47271     17.39634         0.052921     -0.788949     -0.206665
O      8.50569      3.58206     10.43466         0.557406      0.155946     -0.056334
O      8.50569     17.39634     10.54374         0.517018     -0.184513      0.004979
O     12.47271      3.58206     10.54374        -0.606631      0.197550      0.001927
O     12.47271     17.39634     10.43466        -0.244959      0.062465     -0.043971
O     11.90042     11.90042     19.56718        -0.257741     -0.299989      0.234881
O     19.56718     19.56718     19.56718         0.321781      0.296780      0.266422
O     19.56718     11.90042     11.90042         0.312642     -0.261560     -0.237079
O     11.90042     19.56718     11.90042        -0.236934      0.302351     -0.323514
O      9.45224      1.03696      9.45224         0.000166      0.077686     -0.115542
O      1.03696      9.45224      9.45224         0.090094     -0.071949     -0.154514
O      1.03696      1.03696      1.03696         0.112507      0.171617      0.032512
O      9.45224      9.45224      1.03696        -0.096535     -0.110385      0.020111
Zr     10.48920      2.52580     10.48920        -0.104232     -0.238731     -0.010724
Zr     10.48920     18.45260     10.48920        -0.095242      0.188238      0.139708
Zr     10.48920     10.48920      2.52580        -0.115744     -0.429958     -0.221788
Zr     10.48920     10.48920     18.45260        -0.192868     -0.037963      0.395211
Zr      2.52580     10.48920     10.48920        -0.355852      0.258779      0.270649
Zr     18.45260     10.48920     10.48920         0.176630      0.004996     -0.138912
Pd     13.62607      8.94436      9.17287        -0.013408     -0.000377      0.020052
Pd      5.70357      9.77993     10.04438        -0.027698      0.034553     -0.000650
Pd      6.79482     11.61227     11.69219        -0.003583      0.019595     -0.020540
Pd     12.19365     13.09559      7.32898        -0.007753      0.003316      0.006170
Pd     12.05359      7.86087      7.25819        -0.030052     -0.004060      0.028142
Pd      8.29230      7.04896      6.57572        -0.000089     -0.004969      0.004881
Pd     10.89820     11.27239      5.57839        -0.011194     -0.008377      0.012010
Pd     14.60108      8.53120      6.72514        -0.022926      0.000254      0.011187
Pd      9.65627     11.79787      7.99409        -0.006899     -0.001025      0.010332
Pd      6.78109      6.78418     12.27448         0.079363      0.040078      0.003794
Pd      6.37466      7.61725      8.26827         0.006926      0.009384      0.004053
Pd      6.87306      8.70780     14.04727        -0.038426     -0.010049      0.038762
Pd     11.57107      6.53585      9.58227        -0.020808     -0.015609      0.017667
Pd      9.72670      9.29312      6.91657        -0.019599     -0.001359      0.033256
Pd      9.01489     13.96537      9.39009         0.006599      0.006943     -0.008886
Pd      9.83026      7.19301     11.62711        -0.118720      0.029609      0.028782
Pd     10.51444      8.97517      9.58027         0.008972     -0.017248      0.024002
Pd      9.33563     11.33114     10.59926        -0.011907      0.036959     -0.001612
Pd      8.86996      7.01114      9.14742         0.013320     -0.019083     -0.005328
Pd      8.68943      6.75575     14.04313        -0.020633      0.022975      0.040787
Pd      7.92048      9.11088     11.56009        -0.068198      0.069642      0.118911
Pd     11.96749     10.49829      7.83596         0.001370     -0.005729      0.001343
Pd      7.13347     12.05574      9.09171         0.006070     -0.016619     -0.012970
Pd      8.03358      9.58592      8.86931        -0.002762      0.005550      0.087951
Pd     14.11413      6.48316      8.46438        -0.010833     -0.007815      0.011750
Pd     12.49760      8.25134     11.49113        -0.022560      0.011225      0.021021
Pd      8.77082     11.40400     13.41241        -0.003960      0.035517     -0.009896
Pd     13.90668     11.92792      9.03312         0.003760      0.001502     -0.007148
Pd     12.88020     10.58082     13.09139        -0.002423      0.007344     -0.011615
Pd     14.74221     10.34547     11.14038         0.006335      0.006184     -0.007522
Pd     12.06318     10.74662     10.58121         0.015725      0.019142     -0.017981
Pd     11.44738     13.16114      9.85620         0.006767      0.023011      0.004875
Pd     13.56498     12.82766     11.66284         0.006446      0.008829      0.002374
Pd     11.04198     12.53042     12.44461         0.004171      0.017342      0.002217
Pd     11.05385     11.32120     14.87171        -0.031673     -0.029377     -0.028507
Pd     10.46467      9.60620     12.50674        -0.004665      0.014930     -0.033583
Pd      9.39778      9.25557     14.85367        -0.083969     -0.033032     -0.060536
Pd      8.67982     13.61335     11.99802         0.013855      0.033020     -0.006521
