152
# total energy = -1023.21480756 eVH     10.35389      5.87395      7.64558         0.497624      0.085432      0.723366
H     10.62451     15.10445      7.64558        -0.102957     -0.059062      0.815762
H     10.62451      5.87395     13.33282         0.145100      0.127127     -0.641384
H     10.35389     15.10445     13.33282        -0.167709     -0.125886     -0.538157
H      7.64558     10.35389      5.87395         0.309422     -0.022995      0.188816
H      7.64558     10.62451     15.10445         0.645627     -0.211887     -0.132362
H     13.33282     10.62451      5.87395        -0.786576     -0.171152      0.204686
H     13.33282     10.35389     15.10445        -0.434853     -0.101492     -0.056481
H      5.87395      7.64558     10.35389         0.210543      1.085386     -0.260078
H     15.10445      7.64558     10.62451        -0.176178      0.473537     -0.121734
H      5.87395     13.33282     10.62451         0.161080     -0.417267     -0.059442
H     15.10445     13.33282     10.35389        -0.131359     -0.915945      0.021031
H      5.87395     10.35389      7.64558         0.131732      0.098618      0.458444
H     15.10445     10.62451      7.64558         0.102299     -0.028674      1.047819
H      5.87395     10.62451     13.33282         0.191167     -0.026461     -0.381723
H     15.10445     10.35389     13.33282        -0.120603     -0.059751     -0.535281
H     10.35389      7.64558      5.87395         0.133322      0.861670      0.185697
H     10.62451      7.64558     15.10445        -0.010613      0.532217     -0.163747
H     10.62451     13.33282      5.87395        -0.010791     -0.580940      0.213928
H     10.35389     13.33282     15.10445        -0.286023     -0.889418     -0.131921
H      7.64558      5.87395     10.35389         0.445583      0.095686     -0.040840
H      7.64558     15.10445     10.62451         0.834742     -0.282500      0.026259
H     13.33282      5.87395     10.62451        -0.450186      0.187281     -0.066022
H     13.33282     15.10445     10.35389        -0.658555     -0.101049      0.166920
H     12.45634     12.45634     19.01126         0.252034      0.263677     -0.230217
H     19.01126     19.01126     19.01126        -0.252463     -0.230370     -0.261701
H     19.01126     12.45634     12.45634        -0.233708      0.271853      0.241961
H     12.45634     19.01126     12.45634         0.224722     -0.263500      0.250196
C     10.35284      5.61067      6.59456        -0.199144     -0.356979     -0.035241
C     10.62556     15.36773      6.59456         0.070179      0.361174     -1.231422
C     10.62556      5.61067     14.38384        -0.058191     -0.259710      0.821926
C     10.35284     15.36773     14.38384         0.038172      0.865607      0.419126
C      6.59456     10.35284      5.61067        -0.360743     -0.036904     -0.171885
C      6.59456     10.62556     15.36773        -0.843111      0.190134      0.370664
C     14.38384     10.62556      5.61067         0.485630      0.307385     -0.498374
C     14.38384     10.35284     15.36773         0.769422     -0.108981      0.444172
C      5.61067      6.59456     10.35284        -0.316005     -0.639052      0.438773
C     15.36773      6.59456     10.62556         0.163308     -0.510693      0.085046
C      5.61067     14.38384     10.62556        -0.144522      0.382548     -0.023105
C     15.36773     14.38384     10.35284         0.390806     -0.036137     -0.091958
C      5.61067     10.35284      6.59456        -0.260538     -0.025252     -0.785391
C     15.36773     10.62556      6.59456         0.611115     -0.267718     -1.340421
C      5.61067     10.62556     14.38384        -0.338691     -0.003983      0.418926
C     15.36773     10.35284     14.38384         0.492739     -0.162917      1.125484
C     10.35284      6.59456      5.61067        -0.174215     -0.464819     -0.437127
C     10.62556      6.59456     15.36773         0.057604     -0.638424      0.275751
C     10.62556     14.38384      5.61067         0.089811      0.982601     -0.495917
C     10.35284     14.38384     15.36773         0.257009      0.599221      0.510898
C      6.59456      5.61067     10.35284        -0.126199     -0.824672      0.073568
C      6.59456     15.36773     10.62556        -1.519805      0.416043      0.115663
C     14.38384      5.61067     10.62556         0.638151     -0.277475     -0.018164
C     14.38384     15.36773     10.35284        -0.426144      0.682513     -0.317541
C     10.40319      3.19606      7.29314         0.005124      0.827650     -0.296073
C     10.35913      4.25547      6.23373        -0.052315     -0.479404      0.495411
C      0.08601      7.29314      7.29314        -0.006501     -0.254983     -0.532100
C      0.13007      6.23373      6.23373         0.033148      0.153267      0.207226
C      0.08601      3.19606      3.19606        -0.010208      0.579718      0.196965
C      0.13007      4.25547      4.25547        -0.093226     -0.177635     -0.192300
C     10.40319      7.29314      3.19606        -0.009036     -0.632095      0.564370
C     10.35913      6.23373      4.25547        -0.043728      0.260450     -0.607772
C      7.29314     10.40319      3.19606        -0.293190      0.025719      0.953862
C      6.23373     10.35913      4.25547         0.166792      0.032936     -0.128600
C      7.29314      0.08601      7.29314        -0.308794     -0.035004     -0.301309
C      6.23373      0.13007      6.23373         0.330630     -0.050457      0.318686
C      3.19606      0.08601      3.19606         0.513957     -0.030437      0.695051
C      4.25547      0.13007      4.25547        -0.093195     -0.027481     -0.368616
C      3.19606     10.40319      7.29314         0.707412      0.000454     -0.417302
C      4.25547     10.35913      6.23373        -0.157153      0.027282      0.083330
C      3.19606      7.29314     10.40319         0.683605     -1.288156     -0.012560
C      4.25547      6.23373     10.35913        -0.659326      0.910880      0.077122
C      7.29314      7.29314      0.08601        -0.706654     -0.181472     -0.017657
C      6.23373      6.23373      0.13007         0.220311      0.198448      0.020639
C      3.19606      3.19606      0.08601         0.271040      0.299498     -0.020665
C      4.25547      4.25547      0.13007        -0.070814     -0.040974     -0.003309
C      7.29314      3.19606     10.40319        -0.358915      1.011392      0.016599
C      6.23373      4.25547     10.35913         1.071021     -0.019307      0.006536
O     10.43466      3.58206      8.50569        -0.042036      0.050614      0.388657
O     10.54374     17.39634      8.50569        -0.044450     -0.175375      0.595905
O     10.54374      3.58206     12.47271         0.048773      0.081141     -0.332068
O     10.43466     17.39634     12.47271        -0.008873     -0.141552     -0.634607
O      8.50569     10.43466      3.58206         0.323747     -0.033965     -0.035958
O      8.50569     10.54374     17.39634         0.472645      0.042876     -0.145298
O     12.47271     10.54374      3.58206        -0.473771      0.009609      0.087496
O     12.47271     10.43466     17.39634        -0.793083     -0.000324     -0.187753
O      3.58206      8.50569     10.43466         0.110288      1.043698      0.015447
O     17.39634      8.50569     10.54374        -0.025036      0.303006      0.074429
O      3.58206     12.47271     10.54374         0.073894     -0.466673      0.049881
O     17.39634     12.47271     10.43466        -0.175663     -0.897627      0.058014
O      3.58206     10.43466      8.50569        -0.059820     -0.068504      0.337285
O     17.39634     10.54374      8.50569        -0.130288      0.040355      0.462156
O      3.58206     10.54374     12.47271         0.095602     -0.023337     -0.640925
O     17.39634     10.43466     12.47271        -0.192377      0.056521     -0.801337
O     10.43466      8.50569      3.58206         0.027057      0.634666      0.158227
O     10.54374      8.50569     17.39634         0.061925      0.433975     -0.078734
O     10.54374     12.47271      3.58206        -0.003722     -0.685227      0.219253
O     10.43466     12.47271     17.39634         0.032599     -0.844012     -0.239358
O      8.50569      3.58206     10.43466         0.436049      0.020169     -0.040916
O      8.50569     17.39634     10.54374         0.706441     -0.263620     -0.067209
O     12.47271      3.58206     10.54374        -0.461439      0.152024      0.042111
O     12.47271     17.39634     10.43466        -0.562554     -0.023379     -0.005177
O     11.90042     11.90042     19.56718        -0.293984     -0.314128      0.256290
O     19.56718     19.56718     19.56718         0.283158      0.258918      0.310395
O     19.56718     11.90042     11.90042         0.257737     -0.323064     -0.248441
O     11.90042     19.56718     11.90042        -0.272700      0.275434     -0.268340
O      9.45224      1.03696      9.45224        -0.083175      0.039873     -0.072265
O      1.03696      9.45224      9.45224         0.010745     -0.174366     -0.099537
O      1.03696      1.03696      1.03696         0.002693      0.069014      0.175695
O      9.45224      9.45224      1.03696        -0.063286     -0.106739      0.102228
Zr     10.48920      2.52580     10.48920         0.004648     -0.096397     -0.042852
Zr     10.48920     18.45260     10.48920         0.142252      0.373793      0.013660
Zr     10.48920     10.48920      2.52580         0.011670     -0.010066     -0.357982
Zr     10.48920     10.48920     18.45260        -0.150896     -0.045992      0.372933
Zr      2.52580     10.48920     10.48920        -0.334668      0.243988     -0.115393
Zr     18.45260     10.48920     10.48920         0.281413     -0.011907     -0.279945
Pd      8.97563     10.11298     13.30953        -0.042933     -0.021734      0.015765
Pd     10.67399      9.70016     10.85964        -0.006414     -0.015217     -0.074683
Pd     13.71536      8.36454     12.57912        -0.015156      0.044662      0.017364
Pd     10.99545     10.90652     14.95418        -0.026285     -0.017824      0.014612
Pd     12.90892     10.99692     12.95034         0.009662      0.033644      0.047605
Pd     15.11267     11.09502     11.31277        -0.019025     -0.028616      0.003834
Pd      6.58204      7.72329     12.32911         0.004548      0.020266      0.013131
Pd      9.31266      7.27953      9.86905        -0.001464      0.009292     -0.024177
Pd      9.21010      7.46072     12.63505         0.006436     -0.009340     -0.020657
Pd     11.61684      7.13786     11.43048         0.009064      0.021561     -0.023079
Pd     11.70528      7.98563      8.92422        -0.002088     -0.024098     -0.051441
Pd      7.39021     11.77141     11.76550        -0.024129     -0.006239     -0.003888
Pd      9.21969     14.79668      9.44854        -0.001615     -0.036504      0.011996
Pd      8.41729     12.54991     14.23848        -0.024535     -0.011029      0.008956
Pd     14.09323     14.24694      8.31607         0.007834     -0.008448      0.002457
Pd     11.49897     13.64943      8.72307         0.019881     -0.016074      0.023620
Pd     14.16754     11.68793      8.89652        -0.008088     -0.005597      0.002177
Pd      8.73309     14.02759     12.05147        -0.002336     -0.009882      0.015800
Pd     12.27144     13.47555     14.13076        -0.019164      0.025973     -0.009052
Pd     11.35299     14.42933     11.44303         0.005591     -0.038334      0.006072
Pd     14.09044     13.59210     12.27557        -0.012729     -0.015986     -0.010250
Pd     12.43266     12.17429     10.72593        -0.017433     -0.057197      0.010186
Pd     12.75322     12.50267      6.68966         0.004239      0.011291     -0.001828
Pd     13.93595      9.00177      8.01664         0.006986     -0.010635     -0.034361
Pd      6.93379      8.49213      8.75230         0.005545     -0.008350     -0.011315
Pd      5.62393     10.11106     10.69809         0.002750     -0.011644     -0.041247
Pd      9.40071      9.44502      8.12732        -0.000245     -0.005243     -0.059969
Pd      8.56328      7.01116      7.24058        -0.011811     -0.019415     -0.018701
Pd      9.76824     12.13943     10.31826        -0.005513     -0.025964      0.050326
Pd     11.64408     10.80209      8.51684        -0.000492     -0.003795     -0.045154
Pd     11.58632      9.10059      6.48655         0.013649     -0.005525     -0.035569
Pd     10.07606     11.36238      6.39394        -0.000072      0.002150     -0.054468
Ir     11.28138      8.98915     13.22014        -0.026501      0.031993     -0.040685
Ir     13.21517      9.61944     10.40587         0.001758     -0.030235     -0.026588
Ir     10.55865     12.20538     12.70832        -0.017767     -0.015840      0.016125
Ir      7.61178     10.99590      9.23870         0.000292     -0.015404     -0.001615
Ir      8.77439     12.66932      8.07874         0.078386     -0.029115     -0.007765
Ir      8.18337      9.29595     11.00036        -0.001391      0.001098     -0.004278
