15
# total energy = -96.97781552 eVC      1.43616      0.00041     10.00000        -0.061839      0.000480      0.000000
C      5.86314      4.23462     10.00000         0.061839     -0.000480      0.000000
C      6.58058     -2.95768     10.00000         0.035591     -0.053704      0.000000
C      0.71872      7.19271     10.00000        -0.035591      0.053704     -0.000000
C      6.58192      2.99114     10.00000         0.026090      0.052331      0.000000
C      0.71738      1.24389     10.00000        -0.026090     -0.052331      0.000000
O      1.37014      2.37646     10.00000        -0.012724     -0.045235      0.000000
O      5.92916      1.85858     10.00000         0.012724      0.045235      0.000000
O      4.55580      4.23326     10.00000         0.055485      0.012418      0.000000
O      2.74350      0.00177     10.00000        -0.055485     -0.012418      0.000000
O      1.37245      6.06049     10.00000        -0.030039      0.050503     -0.000000
O      5.92686     -1.82545     10.00000         0.030039     -0.050503      0.000000
Au      3.64965      2.11752     10.00000        -0.000000     -0.000000      0.000000
Au      3.64965     -2.10059     10.00000        -0.000000     -0.000000      0.000000
Au      0.00000      4.21811     10.00000        -0.000000     -0.000000      0.000000
