35
# total energy = -301.52414109 eVC      6.68385     10.28885      7.65018        -0.074839      0.140926      0.002081
C      8.06975      9.93440      7.57820        -0.245470      0.137083      0.031728
C      9.41714      5.70074      7.64988         0.759687      0.202149      0.009104
C      1.46466      5.35801      7.66833        -0.701356     -0.253020     -0.005371
C      4.19716      0.76810      7.63214         0.096035     -0.137047      0.011560
C      2.81154      1.12218      7.56247         0.229680     -0.098732      0.033775
C      0.71183      4.16717      7.64388        -0.099131      0.163125      0.004801
C      1.10124      2.79238      7.56888        -0.131203      0.193121      0.035267
C      5.36755      1.55128      7.64674        -0.234563     -0.747417      0.004333
C      5.51382      9.50625      7.66991         0.180083      0.717271      0.000998
C     10.17019      6.88980      7.64131         0.145421     -0.052243      0.009889
C      9.78158      8.26669      7.57166         0.151716     -0.254238      0.035390
C      0.77139      6.57982      7.64918        -0.067203      0.142453     -0.013026
C      1.25659      7.93063      7.57966        -0.169690     -0.297436      0.029880
C     10.11140      4.47880      7.64271         0.031091     -0.173528     -0.002139
C      9.62621      3.12786      7.56892         0.159287      0.302835      0.029030
C      4.27459     10.16914      7.65032        -0.157681      0.065879     -0.007738
C      2.93558      9.65137      7.58036         0.303419      0.157827      0.030141
C      6.60556      0.88820      7.63762         0.236735     -0.071716     -0.003170
C      7.94585      1.40584      7.56732        -0.329150     -0.157473      0.028705
N      8.80016      0.31073      7.48150         0.476665     -0.011789     -0.060642
N      0.14100      8.75799      7.48711        -0.025148      0.473954     -0.053990
N      8.53190      8.69604      7.59796        -0.032078     -0.013305     -0.015709
N      2.35072      2.36135      7.59005         0.029984      0.009705     -0.014392
N      2.08096     10.74619      7.49024        -0.484153      0.004126     -0.059072
N     10.74288      2.30097      7.48330         0.012237     -0.480167     -0.057467
N      2.56439      8.33383      7.60074         0.119101     -0.107325     -0.007511
N      8.31762      2.72381      7.58532        -0.105247      0.101165     -0.014480
O      5.33698      2.86062      7.62895         0.088439      1.065424     -0.021780
O      5.54361      8.19618      7.67581        -0.077088     -1.032124      0.006183
O      8.10818      5.69673      7.62369        -1.091636     -0.103950     -0.018383
O      2.77569      5.36066      7.67623         0.985277      0.090009      0.009755
Zr      6.53635      4.46044      7.60046         0.149556     -0.137533     -0.011743
Zr      4.34753      6.59373      7.67598        -0.129033      0.167479      0.014360
Zr      0.02572     10.81097      6.86550         0.000255     -0.005486      0.039632
