152
# total energy = -1060.08334120 eVH     10.35389      5.87395      7.64558        -0.281405      0.041419      1.126693
H     10.62451     15.10445      7.64558         0.080142     -0.087508      0.928141
H     10.62451      5.87395     13.33282        -0.257826      0.077108     -0.787112
H     10.35389     15.10445     13.33282         0.096971     -0.302536     -0.869653
H      7.64558     10.35389      5.87395         0.932391     -0.137101      0.187615
H      7.64558     10.62451     15.10445         0.329471     -0.036723     -0.073065
H     13.33282     10.62451      5.87395        -0.861295      0.195221      0.205619
H     13.33282     10.35389     15.10445        -0.278333     -0.014145     -0.068517
H      5.87395      7.64558     10.35389         0.087796      0.416064     -0.009462
H     15.10445      7.64558     10.62451        -0.003056      0.492535     -0.032295
H      5.87395     13.33282     10.62451        -0.014890     -0.961117      0.081144
H     15.10445     13.33282     10.35389        -0.084722     -0.320530      0.003960
H      5.87395     10.35389      7.64558         0.283962      0.111502      0.404813
H     15.10445     10.62451      7.64558        -0.123767     -0.172444      0.666282
H      5.87395     10.62451     13.33282        -0.082714      0.460938     -0.617871
H     15.10445     10.35389     13.33282         0.243186     -0.621050     -0.833268
H     10.35389      7.64558      5.87395        -0.040620      0.485861      0.335610
H     10.62451      7.64558     15.10445         0.265040      0.782939     -0.028335
H     10.62451     13.33282      5.87395         0.127802     -0.575720      0.209139
H     10.35389     13.33282     15.10445         0.038700     -0.286768     -0.145068
H      7.64558      5.87395     10.35389         0.346696      0.100566      0.032062
H      7.64558     15.10445     10.62451         0.379415     -0.118818      0.167727
H     13.33282      5.87395     10.62451        -0.315246      0.130777     -0.029429
H     13.33282     15.10445     10.35389        -0.654336     -0.127336      0.147905
H     12.45634     12.45634     19.01126         0.255945      0.271266     -0.228546
H     19.01126     19.01126     19.01126        -0.246395     -0.268121     -0.245497
H     19.01126     12.45634     12.45634        -0.250779      0.269808      0.235541
H     12.45634     19.01126     12.45634         0.290448     -0.235669      0.234740
C     10.35284      5.61067      6.59456         0.399943     -0.416916     -1.424852
C     10.62556     15.36773      6.59456        -0.154660      0.590720     -0.647845
C     10.62556      5.61067     14.38384         0.382649     -0.337283      0.829046
C     10.35284     15.36773     14.38384        -0.224192      0.225162      1.080799
C      6.59456     10.35284      5.61067        -1.378251      0.022186     -0.231169
C      6.59456     10.62556     15.36773        -0.646430      0.062785      0.366684
C     14.38384     10.62556      5.61067         1.306828     -0.168812     -0.632872
C     14.38384     10.35284     15.36773         0.355798     -0.124527      0.356928
C      5.61067      6.59456     10.35284        -0.286308     -0.651261     -0.021717
C     15.36773      6.59456     10.62556         0.419798     -0.959974      0.034109
C      5.61067     14.38384     10.62556        -0.136278      1.164516     -0.184967
C     15.36773     14.38384     10.35284         0.469640      0.654104     -0.026680
C      5.61067     10.35284      6.59456        -0.372635     -0.099485     -0.730939
C     15.36773     10.62556      6.59456         0.406509      0.117642     -0.731833
C      5.61067     10.62556     14.38384        -0.385744     -0.171189      1.230307
C     15.36773     10.35284     14.38384         0.265546      0.192091      1.461238
C     10.35284      6.59456      5.61067        -0.054857     -0.724960     -0.595352
C     10.62556      6.59456     15.36773        -0.112820     -0.899930      0.350164
C     10.62556     14.38384      5.61067        -0.474692      0.405391     -0.712889
C     10.35284     14.38384     15.36773        -0.158917      0.616455      0.424493
C      6.59456      5.61067     10.35284        -0.515622     -0.333187      0.023740
C      6.59456     15.36773     10.62556        -0.372323      0.448247      0.058641
C     14.38384      5.61067     10.62556         0.447418     -0.369719      0.001605
C     14.38384     15.36773     10.35284         1.120814      0.498359     -0.072512
C     10.40319      3.19606      7.29314        -0.001556      0.684586     -0.337036
C     10.35913      4.25547      6.23373         0.011522     -0.422477      0.288742
C      0.08601      7.29314      7.29314        -0.014320     -0.367658     -0.506198
C      0.13007      6.23373      6.23373        -0.068466      0.858169      0.067285
C      0.08601      3.19606      3.19606        -0.003248      0.683124      0.266919
C      0.13007      4.25547      4.25547         0.032687     -0.269544     -0.544881
C     10.40319      7.29314      3.19606        -0.066937     -1.152115      0.581848
C     10.35913      6.23373      4.25547        -0.038799      0.363913     -0.199066
C      7.29314     10.40319      3.19606        -1.084079     -0.056628      0.194131
C      6.23373     10.35913      4.25547         0.366627      0.086405     -0.541008
C      7.29314      0.08601      7.29314        -0.432484      0.033204     -0.521895
C      6.23373      0.13007      6.23373         0.183237      0.128108      0.127962
C      3.19606      0.08601      3.19606         0.693675      0.024580      0.166324
C      4.25547      0.13007      4.25547        -0.172853     -0.051063     -0.355797
C      3.19606     10.40319      7.29314         0.385248     -0.025819     -0.894966
C      4.25547     10.35913      6.23373        -0.152354     -0.077005      0.100079
C      3.19606      7.29314     10.40319         0.605543     -0.397635      0.002751
C      4.25547      6.23373     10.35913        -0.112986      0.182789      0.001365
C      7.29314      7.29314      0.08601        -0.412199     -0.315566     -0.015022
C      6.23373      6.23373      0.13007         0.180194      0.188189     -0.065075
C      3.19606      3.19606      0.08601         0.289662      0.479808     -0.024186
C      4.25547      4.25547      0.13007        -0.405040     -0.230818     -0.034942
C      7.29314      3.19606     10.40319        -0.277909      0.592378     -0.010881
C      6.23373      4.25547     10.35913         0.005421     -0.110572      0.020227
O     10.43466      3.58206      8.50569        -0.027767      0.092964      0.320346
O     10.54374     17.39634      8.50569         0.062514     -0.129390      0.594482
O     10.54374      3.58206     12.47271         0.027896      0.106187     -0.393401
O     10.43466     17.39634     12.47271         0.090342     -0.047191     -0.388281
O      8.50569     10.43466      3.58206         0.710411     -0.062321      0.012318
O      8.50569     10.54374     17.39634         0.481795      0.057572     -0.079488
O     12.47271     10.54374      3.58206        -0.648191      0.115866      0.204535
O     12.47271     10.43466     17.39634        -0.282729     -0.003969      0.023007
O      3.58206      8.50569     10.43466         0.040227      0.460267     -0.068124
O     17.39634      8.50569     10.54374        -0.058897      0.452588      0.056698
O      3.58206     12.47271     10.54374         0.114163     -0.583114      0.001975
O     17.39634     12.47271     10.43466        -0.172415     -0.741895     -0.056218
O      3.58206     10.43466      8.50569         0.212355     -0.061673      0.787419
O     17.39634     10.54374      8.50569        -0.099799      0.075964      0.556532
O      3.58206     10.54374     12.47271        -0.000709     -0.002870     -0.267904
O     17.39634     10.43466     12.47271         0.038344     -0.012448     -0.226068
O     10.43466      8.50569      3.58206        -0.104221      0.568402     -0.114250
O     10.54374      8.50569     17.39634         0.067469      0.505382     -0.088103
O     10.54374     12.47271      3.58206         0.104894     -0.626519      0.133460
O     10.43466     12.47271     17.39634        -0.060631     -0.653543     -0.254922
O      8.50569      3.58206     10.43466         0.394879      0.026364     -0.036557
O      8.50569     17.39634     10.54374         0.631309     -0.155041      0.047767
O     12.47271      3.58206     10.54374        -0.508776      0.126709      0.035202
O     12.47271     17.39634     10.43466        -0.621412     -0.132166      0.040168
O     11.90042     11.90042     19.56718        -0.274060     -0.307417      0.233133
O     19.56718     19.56718     19.56718         0.303747      0.318837      0.299680
O     19.56718     11.90042     11.90042         0.284853     -0.324853     -0.232295
O     11.90042     19.56718     11.90042        -0.316059      0.229278     -0.202633
O      9.45224      1.03696      9.45224        -0.083594      0.085518     -0.068593
O      1.03696      9.45224      9.45224         0.102837     -0.116580     -0.047802
O      1.03696      1.03696      1.03696         0.083914      0.055795      0.097300
O      9.45224      9.45224      1.03696        -0.060756     -0.131824      0.131235
Zr     10.48920      2.52580     10.48920         0.032707     -0.089665      0.081625
Zr     10.48920     18.45260     10.48920        -0.172411      0.259648     -0.347256
Zr     10.48920     10.48920      2.52580         0.119602      0.355659     -0.347222
Zr     10.48920     10.48920     18.45260        -0.082318     -0.208929      0.190004
Zr      2.52580     10.48920     10.48920        -0.254752      0.129146      0.230512
Zr     18.45260     10.48920     10.48920         0.224702     -0.116694     -0.002143
Pd      9.39710     14.26612      9.35546        -0.004769      0.026912     -0.041394
Pd      8.61477     13.69463     12.98941        -0.013189     -0.018995      0.028141
Pd     12.03768     14.41529      8.73917         0.009675     -0.009595     -0.000149
Pd     12.76800     12.82186     10.62939        -0.030675     -0.002882      0.056596
Pd     12.14571      7.11740     12.61819        -0.008100      0.000728      0.001610
Pd     11.21038     14.83847     11.50045        -0.021613      0.023166     -0.027114
Pd     10.07756     12.49849     11.11483        -0.046632      0.084080     -0.039246
Pd     13.48302     12.13509      7.98052         0.010765      0.009037      0.006126
Pd     11.48090     11.55816      6.11186         0.002249      0.002289      0.008762
Pd      7.86086      8.55124      7.54372         0.006959     -0.048494     -0.021578
Pd      8.73606     11.73145      6.88368        -0.002672      0.015150      0.011612
Pd     10.30911      9.46564      8.14541         0.004912      0.011503     -0.013205
Pd      8.50905     14.43658      6.83939        -0.011994      0.011180     -0.023221
Pd     12.36612      9.03355      6.58464        -0.001537      0.012959      0.010976
Pd      9.74399      9.60989      5.55358         0.002432      0.008347      0.005528
Pd      6.86426      9.45649     12.18405        -0.013553      0.002695      0.011351
Pd     12.20887      6.69293      7.87749         0.000566      0.000951      0.007989
Pd      5.95000     10.46053      9.72550        -0.027354     -0.006894     -0.009553
Pd      7.57662      7.14266     13.27341        -0.012027      0.015050      0.051848
Ir     11.79596      9.70272     13.05893        -0.065809      0.015414     -0.015679
Ir     13.57730      8.99492     11.44647        -0.013130      0.035416     -0.000580
Ir      9.42543      8.82628     13.89891        -0.005247      0.041359      0.054298
Ir     10.55907     10.92171     14.87795        -0.028382     -0.021731      0.044752
Ir      7.28719     12.02516     11.36757        -0.022176      0.001640     -0.007251
Ir     14.69195     10.84084     10.10054        -0.032342      0.024741      0.048536
Ir     12.19825     10.48922      9.65924         0.013953      0.003839     -0.017519
Ir      8.77975     11.03442     13.01481         0.057865     -0.048776     -0.000157
Ir     10.14097      9.86196     11.21274         0.025068      0.041408     -0.000236
Ir     13.76227     11.36636     12.41696        -0.068852      0.009552      0.039601
Ir     11.64234     12.29609     13.10976        -0.057308     -0.024397     -0.019869
Ir      8.52978     11.07494      9.38275        -0.025013      0.080255     -0.070207
Ir     11.59679      7.97640     10.07220         0.047826      0.044159      0.038831
Ir      7.24124     13.00506      8.70006         0.031092      0.007277     -0.000464
Ir      9.51932      7.00411      9.11733        -0.011119     -0.065886     -0.006214
Ir      8.06899      8.74966     10.09932        -0.040615     -0.022952     -0.005269
Ir     10.75918     12.09661      8.53806        -0.013969      0.006942     -0.044694
Ir      9.56479      7.45719     11.66869        -0.010132      0.054869      0.079422
Ir     13.69769      8.70616      8.80508         0.000999      0.026448      0.031800
