152
# total energy = -1022.43269618 eVH     10.35389      5.87395      7.64558         0.422602     -0.063854      1.072839
H     10.62451     15.10445      7.64558         0.037067     -0.081004      0.610486
H     10.62451      5.87395     13.33282         0.133670      0.109316     -0.635113
H     10.35389     15.10445     13.33282        -0.255739     -0.066856     -0.556563
H      7.64558     10.35389      5.87395         0.396443     -0.054692      0.185043
H      7.64558     10.62451     15.10445         0.627242     -0.123621     -0.099527
H     13.33282     10.62451      5.87395        -1.034651     -0.477279     -0.055036
H     13.33282     10.35389     15.10445        -0.476344     -0.060536     -0.049095
H      5.87395      7.64558     10.35389         0.028397      1.260672     -0.090716
H     15.10445      7.64558     10.62451        -0.166458      0.394276     -0.076314
H      5.87395     13.33282     10.62451         0.145516     -0.385948     -0.066044
H     15.10445     13.33282     10.35389        -0.077782     -1.008311     -0.329806
H      5.87395     10.35389      7.64558         0.118028     -0.017256      0.399393
H     15.10445     10.62451      7.64558         0.087471     -0.071364      0.807908
H      5.87395     10.62451     13.33282         0.262861     -0.061066     -0.423653
H     15.10445     10.35389     13.33282        -0.188569      0.056948     -0.622243
H     10.35389      7.64558      5.87395         0.192179      0.944659      0.025408
H     10.62451      7.64558     15.10445        -0.007628      0.734739     -0.099648
H     10.62451     13.33282      5.87395         0.360258     -0.488896      0.200516
H     10.35389     13.33282     15.10445        -0.164652     -0.944562     -0.121593
H      7.64558      5.87395     10.35389         0.468245      0.065200     -0.152371
H      7.64558     15.10445     10.62451         0.910568     -0.198986      0.202170
H     13.33282      5.87395     10.62451        -0.427242      0.194611     -0.065860
H     13.33282     15.10445     10.35389        -1.006573     -0.049687      0.266333
H     12.45634     12.45634     19.01126         0.273134      0.258658     -0.218553
H     19.01126     19.01126     19.01126        -0.250296     -0.235793     -0.261355
H     19.01126     12.45634     12.45634        -0.243569      0.274627      0.234449
H     12.45634     19.01126     12.45634         0.206063     -0.284957      0.258023
C     10.35284      5.61067      6.59456        -0.048249     -0.499131     -0.801889
C     10.62556     15.36773      6.59456         0.028688      0.334216     -0.872491
C     10.62556      5.61067     14.38384        -0.010998     -0.286898      0.745445
C     10.35284     15.36773     14.38384         0.225493      0.694181      0.071028
C      6.59456     10.35284      5.61067        -0.621606     -0.032021     -0.262546
C      6.59456     10.62556     15.36773        -0.896702      0.123252      0.418436
C     14.38384     10.62556      5.61067         1.085900      0.284732     -0.293967
C     14.38384     10.35284     15.36773         0.756013     -0.110984      0.421972
C      5.61067      6.59456     10.35284        -0.375001     -0.932617      0.211284
C     15.36773      6.59456     10.62556         0.193271     -0.474761      0.040695
C      5.61067     14.38384     10.62556        -0.241072      0.382622     -0.006826
C     15.36773     14.38384     10.35284         0.312056      0.380896      0.258054
C      5.61067     10.35284      6.59456        -0.341612      0.015198     -0.807264
C     15.36773     10.62556      6.59456         0.538158     -0.174594     -1.199008
C      5.61067     10.62556     14.38384        -0.506897      0.010817      1.102387
C     15.36773     10.35284     14.38384         0.547596     -0.200277      1.361587
C     10.35284      6.59456      5.61067         0.002671     -1.175446     -0.726703
C     10.62556      6.59456     15.36773         0.061491     -0.938898      0.388686
C     10.62556     14.38384      5.61067        -0.049585      1.378535     -0.705433
C     10.35284     14.38384     15.36773         0.050816      0.669394      0.558209
C      6.59456      5.61067     10.35284        -0.032184     -0.894611      0.135974
C      6.59456     15.36773     10.62556        -1.704718      0.486657      0.069083
C     14.38384      5.61067     10.62556         0.553799     -0.224831      0.008175
C     14.38384     15.36773     10.35284         0.524532      0.504552     -0.227033
C     10.40319      3.19606      7.29314         0.017894      0.982925     -0.229392
C     10.35913      4.25547      6.23373        -0.026934     -0.286680      0.781016
C      0.08601      7.29314      7.29314        -0.011115     -0.224819     -0.465058
C      0.13007      6.23373      6.23373        -0.016072      0.155483      0.168343
C      0.08601      3.19606      3.19606        -0.023893      0.711602      0.146389
C      0.13007      4.25547      4.25547        -0.107623     -0.196106     -0.151061
C     10.40319      7.29314      3.19606        -0.003747     -0.644164      0.477871
C     10.35913      6.23373      4.25547        -0.000688      0.575408     -0.309747
C      7.29314     10.40319      3.19606        -0.406586      0.017826      0.936676
C      6.23373     10.35913      4.25547         0.244995     -0.012628     -0.191450
C      7.29314      0.08601      7.29314        -0.305493     -0.054614     -0.243946
C      6.23373      0.13007      6.23373         0.308582     -0.098078      0.238862
C      3.19606      0.08601      3.19606         0.321041     -0.059463      1.371185
C      4.25547      0.13007      4.25547        -0.215528     -0.014304     -0.437867
C      3.19606     10.40319      7.29314         0.753949      0.018361     -0.254909
C      4.25547     10.35913      6.23373        -0.114388      0.039869      0.122509
C      3.19606      7.29314     10.40319         0.516707     -1.229957      0.041225
C      4.25547      6.23373     10.35913        -0.764825      0.695814      0.025501
C      7.29314      7.29314      0.08601        -0.650515     -0.203088     -0.022361
C      6.23373      6.23373      0.13007         0.177100      0.252028     -0.010247
C      3.19606      3.19606      0.08601         0.263434      0.266210     -0.017812
C      4.25547      4.25547      0.13007        -0.054856     -0.035536      0.009939
C      7.29314      3.19606     10.40319        -0.334168      0.697532      0.031143
C      6.23373      4.25547     10.35913         0.685304     -0.228868      0.029240
O     10.43466      3.58206      8.50569        -0.054678      0.025390      0.279328
O     10.54374     17.39634      8.50569        -0.021723     -0.196202      0.618784
O     10.54374      3.58206     12.47271         0.068638      0.045383     -0.286904
O     10.43466     17.39634     12.47271        -0.024114     -0.128843     -0.552138
O      8.50569     10.43466      3.58206         0.382687     -0.008031     -0.018860
O      8.50569     10.54374     17.39634         0.463010      0.059018     -0.143584
O     12.47271     10.54374      3.58206        -0.205059      0.069784     -0.122946
O     12.47271     10.43466     17.39634        -0.851032      0.026843     -0.208703
O      3.58206      8.50569     10.43466         0.034260      0.880181      0.040837
O     17.39634      8.50569     10.54374        -0.026166      0.361161      0.080453
O      3.58206     12.47271     10.54374         0.059237     -0.433435      0.059462
O     17.39634     12.47271     10.43466        -0.154156     -0.709821      0.009546
O      3.58206     10.43466      8.50569        -0.053818     -0.061581      0.224440
O     17.39634     10.54374      8.50569        -0.137085      0.044919      0.440360
O      3.58206     10.54374     12.47271        -0.069935     -0.060272     -0.874344
O     17.39634     10.43466     12.47271        -0.198132      0.048402     -0.785410
O     10.43466      8.50569      3.58206         0.023902      0.668879      0.201980
O     10.54374      8.50569     17.39634         0.056198      0.393294     -0.068330
O     10.54374     12.47271      3.58206        -0.051615     -0.738998      0.249356
O     10.43466     12.47271     17.39634         0.063747     -0.844944     -0.278795
O      8.50569      3.58206     10.43466         0.492907      0.093390     -0.040867
O      8.50569     17.39634     10.54374         0.661078     -0.230145     -0.057437
O     12.47271      3.58206     10.54374        -0.517793      0.157492      0.039689
O     12.47271     17.39634     10.43466        -0.465534     -0.028433     -0.046162
O     11.90042     11.90042     19.56718        -0.309767     -0.310920      0.257292
O     19.56718     19.56718     19.56718         0.292878      0.275659      0.320759
O     19.56718     11.90042     11.90042         0.279387     -0.331276     -0.230038
O     11.90042     19.56718     11.90042        -0.220236      0.294748     -0.242711
O      9.45224      1.03696      9.45224        -0.070284      0.061273     -0.067483
O      1.03696      9.45224      9.45224         0.069589     -0.143173     -0.051483
O      1.03696      1.03696      1.03696         0.044489      0.029694      0.191067
O      9.45224      9.45224      1.03696        -0.035519     -0.085557      0.136997
Zr     10.48920      2.52580     10.48920         0.001008     -0.067911     -0.025737
Zr     10.48920     18.45260     10.48920         0.029454      0.288227     -0.062190
Zr     10.48920     10.48920      2.52580        -0.057516     -0.034514     -0.365023
Zr     10.48920     10.48920     18.45260        -0.155048     -0.204918      0.300569
Zr      2.52580     10.48920     10.48920        -0.325543      0.351672     -0.488970
Zr     18.45260     10.48920     10.48920         0.214802      0.041352     -0.317283
Pd      9.02871     10.27014     13.49721         0.018230      0.011028     -0.043002
Pd     10.63345      9.72835     11.28392         0.008412     -0.007752     -0.069669
Pd     13.76696      8.52694     12.82111         0.004023      0.011798     -0.021317
Pd     11.01881     11.14681     15.10988        -0.002356     -0.018852     -0.005870
Pd     12.81140     11.13988     13.04208         0.006523      0.022514      0.009354
Pd     15.01873     10.78088     11.39072        -0.028454      0.045466     -0.021155
Pd      6.66622      7.40088     12.31397         0.011560      0.004810      0.001501
Pd      9.32308      7.38170     10.25220        -0.036646     -0.058238     -0.013630
Pd      9.23282      7.63866     12.92518         0.015660      0.007299     -0.019053
Pd     11.72027      7.27007     11.64616         0.003304     -0.009307     -0.029876
Pd     11.56175      7.76654      8.96163        -0.093495      0.085060     -0.018151
Pd      7.20585     11.84406     12.08056         0.013699     -0.011727     -0.026249
Pd      8.94678     14.65457      9.33530        -0.033760      0.000577      0.000055
Pd      8.45624     12.74767     14.34987        -0.019347     -0.019641      0.004355
Pd     13.17870     13.94324      8.70607         0.057500     -0.001796     -0.014073
Pd     10.75939     13.04261      8.44195         0.033336      0.063394     -0.001019
Pd     14.06328     11.42259      9.03642        -0.018342     -0.009187     -0.047232
Pd      8.66296     14.09338     12.06125        -0.025380     -0.000275      0.014350
Pd     12.22963     13.73935     13.96782         0.004046      0.012473      0.011831
Pd     11.18124     14.35005     11.02715        -0.027534      0.022656      0.017363
Pd     14.04265     13.40410     12.11700         0.016017      0.041348      0.021675
Pd     12.22618     12.03603     10.66897         0.029296      0.041968      0.021457
Pd     12.46866     11.90236      6.90385         0.014249      0.088651     -0.067134
Pd     13.58387      9.02622      7.87288        -0.003926     -0.054136      0.002401
Pd      6.97180      8.38419      8.97999        -0.042884      0.029709     -0.025709
Pd      5.50755      9.86974     11.35755         0.014099     -0.004184     -0.007732
Pd      8.86346      9.95666      8.00512         0.071367     -0.021848      0.092122
Pd      9.09825      7.42794      7.59660        -0.076670     -0.036571     -0.021199
Pd      9.38738     11.98006     10.45174         0.033900      0.016372     -0.002687
Pd     11.28251     10.41272      8.82956         0.079098      0.086578     -0.049767
Pd     11.08217      9.36710      6.46953         0.002446      0.003751     -0.000552
Pd      9.68433     11.75074      6.23644         0.003786     -0.017504      0.017269
Ir     11.36903      9.06283     13.60577         0.006825      0.010955     -0.048354
Ir     13.06183      9.36733     10.46450         0.007367     -0.009350     -0.008544
Ir     10.51708     12.32682     12.70070         0.002946      0.019687      0.001377
Ir      7.02834     10.96258      9.60878         0.009093      0.010642     -0.012171
Ir      8.17145     12.47846      8.20881         0.028580     -0.018303      0.001403
Ir      8.08485      9.36544     11.21812         0.006238      0.000376     -0.030871
