37
# total energy = -267.21912060 eVH      6.13890     10.67822      7.49840        -0.000000      0.011642      0.000000
H      6.13890      1.59958      7.49840        -0.000000     -0.011642      0.000000
H      1.59958      6.13890      7.49840        -0.011642      0.000000      0.000000
H     10.67822      6.13890      7.49840         0.011642      0.000000      0.000000
C      6.13890      9.59316      7.49840         0.000000     -0.036064     -0.000000
C      6.13890      2.68464      7.49840        -0.000000      0.036064     -0.000000
C      2.68464      6.13890      7.49840         0.036064      0.000000      0.000000
C      9.59316      6.13890      7.49840        -0.036064      0.000000      0.000000
C      3.25412      7.39455      7.49840        -0.009147     -0.004717     -0.000000
C      9.02368      4.88325      7.49840         0.009147      0.004717      0.000000
C      4.88325      3.25412      7.49840         0.004717     -0.009147      0.000000
C      7.39455      9.02368      7.49840        -0.004717      0.009147     -0.000000
C      9.02368      7.39455      7.49840         0.009147     -0.004717      0.000000
C      3.25412      4.88325      7.49840        -0.009147      0.004717     -0.000000
C      7.39455      3.25412      7.49840        -0.004717     -0.009147     -0.000000
C      4.88325      9.02368      7.49840         0.004717      0.009147      0.000000
C     11.54114      0.73666      7.49840         0.029160     -0.029160     -0.000000
C      0.73666     11.54114      7.49840        -0.029160      0.029160      0.000000
C     11.54114     11.54114      7.49840         0.029160      0.029160      0.000000
C      0.73666      0.73666      7.49840        -0.029160     -0.029160      0.000000
N      4.60299      7.67481      7.49840         0.007689     -0.007689     -0.000000
N      7.67481      4.60299      7.49840        -0.007689      0.007689      0.000000
N      4.60299      4.60299      7.49840         0.007689      0.007689      0.000000
N      7.67481      7.67481      7.49840        -0.007689     -0.007689      0.000000
O      8.27903     10.02555      7.49840         0.009227     -0.013812      0.000000
O      3.99877      2.25225      7.49840        -0.009227      0.013812     -0.000000
O      2.25225      8.27903      7.49840         0.013812      0.009227     -0.000000
O     10.02555      3.99877      7.49840        -0.013812     -0.009227      0.000000
O      3.99877     10.02555      7.49840        -0.009227     -0.013812     -0.000000
O      8.27903      2.25225      7.49840         0.009227      0.013812      0.000000
O     10.02555      8.27903      7.49840        -0.013812      0.009227     -0.000000
O      2.25225      3.99877      7.49840         0.013812     -0.009227     -0.000000
Ir     10.18048      2.09732      7.49840         0.004190     -0.004190      0.000000
Ir      2.09732     10.18048      7.49840        -0.004190      0.004190      0.000000
Ir     10.18048     10.18048      7.49840         0.004190      0.004190      0.000000
Ir      2.09732      2.09732      7.49840        -0.004190     -0.004190     -0.000000
Ir      6.13890      6.13890      7.49840        -0.000000      0.000000      0.000000
