152
# total energy = -1024.13844147 eVH     10.35389      5.87395      7.64558         0.553151      0.061265      0.789551
H     10.62451     15.10445      7.64558         0.015225     -0.168294      0.549409
H     10.62451      5.87395     13.33282         0.144912      0.158440     -0.651747
H     10.35389     15.10445     13.33282        -0.342841     -0.068196     -0.716976
H      7.64558     10.35389      5.87395         0.323419     -0.011426      0.188753
H      7.64558     10.62451     15.10445         0.972505     -0.370968      0.002597
H     13.33282     10.62451      5.87395        -0.744441     -0.002281      0.182754
H     13.33282     10.35389     15.10445        -0.858452     -0.359144      0.174093
H      5.87395      7.64558     10.35389         0.212704      0.668188     -0.031928
H     15.10445      7.64558     10.62451        -0.146186      0.405599     -0.044107
H      5.87395     13.33282     10.62451         0.172769     -0.491837     -0.086599
H     15.10445     13.33282     10.35389        -0.112167     -1.102553      0.014620
H      5.87395     10.35389      7.64558         0.146294      0.110029      0.459093
H     15.10445     10.62451      7.64558         0.062508      0.116650      1.076495
H      5.87395     10.62451     13.33282         0.104807     -0.028381     -0.389818
H     15.10445     10.35389     13.33282        -0.080019     -0.151533     -0.634284
H     10.35389      7.64558      5.87395         0.084843      0.866550      0.206451
H     10.62451      7.64558     15.10445         0.016577      0.288600     -0.178380
H     10.62451     13.33282      5.87395        -0.052331     -0.550334      0.267590
H     10.35389     13.33282     15.10445        -0.497879     -0.698027     -0.050220
H      7.64558      5.87395     10.35389         0.464324      0.115730      0.054029
H      7.64558     15.10445     10.62451         0.836888     -0.280109      0.012726
H     13.33282      5.87395     10.62451        -0.510618      0.170785     -0.067504
H     13.33282     15.10445     10.35389        -0.632710     -0.057446      0.206259
H     12.45634     12.45634     19.01126         0.240592      0.279449     -0.230499
H     19.01126     19.01126     19.01126        -0.254590     -0.239868     -0.249191
H     19.01126     12.45634     12.45634        -0.253573      0.273305      0.223260
H     12.45634     19.01126     12.45634         0.227141     -0.262723      0.244276
C     10.35284      5.61067      6.59456        -0.162801     -0.599976      0.052232
C     10.62556     15.36773      6.59456         0.005411      0.433299     -0.752532
C     10.62556      5.61067     14.38384        -0.044919     -0.103679      0.779180
C     10.35284     15.36773     14.38384         0.129733      0.692865      0.222826
C      6.59456     10.35284      5.61067        -0.384387     -0.030977     -0.246590
C      6.59456     10.62556     15.36773        -1.069954      0.387838      0.406438
C     14.38384     10.62556      5.61067         0.402447      0.291393     -0.587763
C     14.38384     10.35284     15.36773         1.000880     -0.036210      0.403409
C      5.61067      6.59456     10.35284        -0.378943     -0.493072      0.248950
C     15.36773      6.59456     10.62556         0.182351     -0.529568      0.027846
C      5.61067     14.38384     10.62556        -0.133787      0.500108     -0.001583
C     15.36773     14.38384     10.35284         0.354331     -0.054099     -0.138258
C      5.61067     10.35284      6.59456        -0.281843     -0.050307     -0.829451
C     15.36773     10.62556      6.59456         0.695543     -0.323126     -1.153819
C      5.61067     10.62556     14.38384        -0.529735     -0.016038      0.214220
C     15.36773     10.35284     14.38384         0.664624     -0.125664      1.142513
C     10.35284      6.59456      5.61067        -0.260557     -0.445429     -0.780645
C     10.62556      6.59456     15.36773         0.050908     -0.290002      0.120814
C     10.62556     14.38384      5.61067         0.154675      1.131321     -0.409721
C     10.35284     14.38384     15.36773         0.205106      0.189258      0.661038
C      6.59456      5.61067     10.35284        -0.352876     -0.753535      0.059275
C      6.59456     15.36773     10.62556        -1.262198      0.308459      0.069594
C     14.38384      5.61067     10.62556         0.756669     -0.254077      0.018876
C     14.38384     15.36773     10.35284        -0.528317      0.729615     -0.331527
C     10.40319      3.19606      7.29314        -0.009213      0.869602     -0.395548
C     10.35913      4.25547      6.23373         0.031938     -0.506659      0.567106
C      0.08601      7.29314      7.29314        -0.008152     -0.482852     -0.397987
C      0.13007      6.23373      6.23373        -0.017246      0.024908      0.097738
C      0.08601      3.19606      3.19606        -0.018590      1.012012      0.187556
C      0.13007      4.25547      4.25547        -0.065816     -0.209914     -0.247235
C     10.40319      7.29314      3.19606        -0.005805     -0.913903      0.470838
C     10.35913      6.23373      4.25547         0.023159      0.457580     -0.628565
C      7.29314     10.40319      3.19606        -0.443915      0.043339      0.833616
C      6.23373     10.35913      4.25547         0.246438      0.092146     -0.116897
C      7.29314      0.08601      7.29314        -0.461397     -0.025584     -0.257204
C      6.23373      0.13007      6.23373         0.414578     -0.062441      0.463135
C      3.19606      0.08601      3.19606         0.738953     -0.018621      0.376879
C      4.25547      0.13007      4.25547        -0.107368     -0.053944     -0.430949
C      3.19606     10.40319      7.29314         0.645674     -0.002530     -0.697473
C      4.25547     10.35913      6.23373        -0.249139      0.108718      0.229927
C      3.19606      7.29314     10.40319         0.505805     -1.309622     -0.033645
C      4.25547      6.23373     10.35913        -0.400164      0.843058      0.043047
C      7.29314      7.29314      0.08601        -0.517719     -0.234021     -0.013370
C      6.23373      6.23373      0.13007         0.171841      0.147068     -0.011519
C      3.19606      3.19606      0.08601         0.245731      0.289516     -0.022556
C      4.25547      4.25547      0.13007        -0.075083     -0.042065      0.016334
C      7.29314      3.19606     10.40319        -0.362388      0.728346      0.017058
C      6.23373      4.25547     10.35913         1.116650      0.068942      0.007075
O     10.43466      3.58206      8.50569        -0.032512      0.040332      0.440738
O     10.54374     17.39634      8.50569        -0.020433     -0.096529      0.467462
O     10.54374      3.58206     12.47271         0.052781     -0.038832     -0.192606
O     10.43466     17.39634     12.47271        -0.044821     -0.075328     -0.542038
O      8.50569     10.43466      3.58206         0.388473     -0.016473     -0.021129
O      8.50569     10.54374     17.39634         0.567661      0.027964     -0.160240
O     12.47271     10.54374      3.58206        -0.660449     -0.024450      0.161344
O     12.47271     10.43466     17.39634        -0.594802     -0.028316     -0.076940
O      3.58206      8.50569     10.43466         0.177187      1.118878     -0.003320
O     17.39634      8.50569     10.54374        -0.052440      0.379828      0.071208
O      3.58206     12.47271     10.54374         0.076647     -0.464736      0.033251
O     17.39634     12.47271     10.43466        -0.157909     -0.726915      0.014482
O      3.58206     10.43466      8.50569         0.004223     -0.070666      0.571771
O     17.39634     10.54374      8.50569        -0.105112      0.040914      0.380289
O      3.58206     10.54374     12.47271         0.034081      0.014093     -0.380478
O     17.39634     10.43466     12.47271        -0.211950      0.023152     -0.723632
O     10.43466      8.50569      3.58206         0.082255      0.814228      0.191753
O     10.54374      8.50569     17.39634         0.065483      0.647207     -0.142426
O     10.54374     12.47271      3.58206        -0.047272     -0.949416      0.246739
O     10.43466     12.47271     17.39634         0.001570     -0.940463     -0.215754
O      8.50569      3.58206     10.43466         0.513513      0.087806     -0.023023
O      8.50569     17.39634     10.54374         0.608329     -0.238482     -0.033661
O     12.47271      3.58206     10.54374        -0.457959      0.141128      0.054115
O     12.47271     17.39634     10.43466        -0.409430      0.036878     -0.014736
O     11.90042     11.90042     19.56718        -0.268712     -0.332988      0.253239
O     19.56718     19.56718     19.56718         0.287665      0.274681      0.294625
O     19.56718     11.90042     11.90042         0.279064     -0.315077     -0.205547
O     11.90042     19.56718     11.90042        -0.271955      0.288801     -0.262915
O      9.45224      1.03696      9.45224        -0.079890      0.050237     -0.058568
O      1.03696      9.45224      9.45224         0.052384     -0.159523     -0.102348
O      1.03696      1.03696      1.03696         0.013557      0.079412      0.194417
O      9.45224      9.45224      1.03696        -0.056644     -0.082336      0.134407
Zr     10.48920      2.52580     10.48920        -0.022661     -0.086801     -0.146937
Zr     10.48920     18.45260     10.48920         0.072725      0.255616      0.016520
Zr     10.48920     10.48920      2.52580         0.013375     -0.154866     -0.530564
Zr     10.48920     10.48920     18.45260        -0.168303      0.039907      0.474262
Zr      2.52580     10.48920     10.48920        -0.375208      0.286221      0.115384
Zr     18.45260     10.48920     10.48920         0.208573      0.044722     -0.289214
Pd      8.59858      9.88438     13.32516         0.096103     -0.013570     -0.060479
Pd     10.53849      9.52572     10.33009         0.069751     -0.029992     -0.094947
Pd     13.44570      8.74291     12.52135         0.037400     -0.046094     -0.003942
Pd     10.71189     10.65217     15.11459        -0.128730     -0.030104      0.023117
Pd     13.01765     11.31003     13.41854        -0.045490      0.023901      0.087682
Pd     14.99268     10.78157     11.27958        -0.057955     -0.024114     -0.003123
Pd      6.72490      7.92413     12.54761         0.011953      0.016958     -0.018828
Pd      9.27388      7.20447      9.64577         0.004231     -0.001101      0.012100
Pd      9.37896      7.47332     12.41533         0.044933      0.016710     -0.052266
Pd     11.69012      7.24538     11.13547         0.068226     -0.006030     -0.006318
Pd     11.69165      7.81799      8.49458        -0.062240      0.027181     -0.020593
Pd      7.25734     11.71236     11.62610        -0.036834      0.040539      0.007237
Pd      9.29271     14.50929      9.49473        -0.029782     -0.013155     -0.020133
Pd      8.12567     12.38051     14.22243         0.101732      0.068732     -0.028909
Pd     14.16110     14.20811      8.33979         0.032572      0.005624     -0.021943
Pd     11.66686     13.42869      8.88988         0.003792      0.017986      0.012548
Pd     14.05464     11.63224      8.92348         0.062376      0.038941      0.045990
Pd      8.75107     13.91613     12.18192         0.081453     -0.067263     -0.040580
Pd     12.19935     13.79692     14.05593         0.007082      0.052534     -0.023463
Pd     11.41396     14.08923     11.46209        -0.016115      0.013696     -0.019403
Pd     14.06229     13.48312     12.15775        -0.024151     -0.075064      0.020084
Pd     12.35541     11.64699     10.92273         0.014290      0.045206     -0.082212
Pd     12.80197     12.63221      6.63920        -0.028208     -0.032652     -0.016323
Pd     13.93880      8.90386      7.68181         0.036917      0.043119     -0.051321
Pd      6.99789      8.42423      8.56416        -0.036132      0.000364     -0.020962
Pd      5.62680     10.05360     10.26366        -0.068464     -0.041508     -0.022302
Pd      9.40204      9.35372      7.67834        -0.013649      0.128625     -0.027207
Pd      8.49131      6.87448      7.05149        -0.040657      0.047068     -0.053966
Pd      9.72532     11.97680     10.56173        -0.003481      0.003885     -0.011180
Pd     11.64040     10.73207      8.19903        -0.019248     -0.064393     -0.002612
Pd     11.69613      9.04257      6.09284        -0.014525     -0.014424     -0.072598
Pd     10.23879     11.31236      5.92742         0.038964      0.034379     -0.008712
Ir     11.05748      9.53739     12.77961         0.003581      0.048434      0.119097
Ir     13.18817      9.34628     10.05713        -0.057386      0.000395     -0.057687
Ir     10.49541     12.02037     12.94564         0.002551      0.062125     -0.018639
Ir      7.79019     10.95015      9.11131        -0.159410     -0.099146      0.038594
Ir      9.37517     12.33781      8.06197         0.078087     -0.080982     -0.114479
Ir      8.10494      9.23567     10.86959        -0.118602     -0.039557      0.045358
