22
# total energy = -164.29831349 eVC      8.36357      1.71980      7.50000        -0.081024     -0.007107      0.000000
C      0.71474      7.35851      7.50000         0.081024      0.007107     -0.000000
C      7.35851      8.36357      7.50000         0.007107     -0.081024     -0.000000
C      1.71980      0.71474      7.50000        -0.007107      0.081024      0.000000
C      0.71474      1.71980      7.50000         0.081024     -0.007107     -0.000000
C      8.36357      7.35851      7.50000        -0.081024      0.007107      0.000000
C      1.71980      8.36357      7.50000        -0.007107     -0.081024      0.000000
C      7.35851      0.71474      7.50000         0.007107      0.081024     -0.000000
O      7.85328      2.97442      7.50000         0.081071     -0.070645     -0.000000
O      1.22503      6.10389      7.50000        -0.081071      0.070645     -0.000000
O      6.10389      7.85328      7.50000         0.070645      0.081071     -0.000000
O      2.97442      1.22503      7.50000        -0.070645     -0.081071      0.000000
O      1.22503      2.97442      7.50000        -0.081071     -0.070645      0.000000
O      7.85328      6.10389      7.50000         0.081071      0.070645      0.000000
O      2.97442      7.85328      7.50000        -0.070645      0.081071      0.000000
O      6.10389      1.22503      7.50000         0.070645     -0.081071      0.000000
Ir      0.00000      4.53916      7.50000         0.000000     -0.000000     -0.000000
Ir      4.53916      0.00000      7.50000         0.000000     -0.000000     -0.000000
Ir      3.39048      5.68783      7.50000        -0.021849      0.021849     -0.000000
Ir      5.68783      3.39048      7.50000         0.021849     -0.021849     -0.000000
Ir      3.39048      3.39048      7.50000        -0.021849     -0.021849     -0.000000
Ir      5.68783      5.68783      7.50000         0.021849      0.021849     -0.000000
