35
# total energy = -301.57988210 eVC      6.68450     10.29409      7.65086         0.019059     -0.004690      0.002641
C      8.07047      9.93792      7.57976        -0.027403      0.037711      0.001497
C      9.41881      5.70702      7.64986         0.000116     -0.004132      0.001121
C      1.46299      5.35081      7.66832        -0.004008      0.001330      0.000121
C      4.19717      0.76329      7.63337        -0.019017      0.003697      0.002813
C      2.81099      1.11929      7.56472         0.028698     -0.031565      0.002524
C      0.70684      4.16752      7.64449         0.006287     -0.020624      0.001753
C      1.09760      2.79109      7.57116        -0.035618      0.026860      0.002209
C      5.36133      1.54872      7.64660         0.000316      0.002120     -0.000183
C      5.52014      9.50888      7.67059        -0.001596     -0.002143      0.001080
C     10.17524      6.89012      7.64220        -0.002731      0.018824      0.000890
C      9.78496      8.26688      7.57419         0.032612     -0.024219      0.002292
C      0.77515      6.57952      7.64841         0.001733     -0.019043      0.001352
C      1.25647      7.92795      7.58069        -0.009358     -0.010774     -0.002929
C     10.10679      4.47822      7.64267        -0.000261      0.017738      0.000347
C      9.62609      3.12992      7.56976         0.010156      0.009727     -0.003729
C      4.27445     10.16562      7.65052         0.015977      0.001442      0.004346
C      2.93807      9.65130      7.58138         0.011729      0.010309     -0.001297
C      6.60706      0.89191      7.63779        -0.015068      0.000009      0.001335
C      7.94337      1.40614      7.56798        -0.010082     -0.010764     -0.004613
N      8.81002      0.31299      7.48118         0.018440      0.001858     -0.014142
N      0.14273      8.76737      7.48819         0.001664      0.017883     -0.009192
N      8.53244      8.69692      7.59773         0.026843      0.016417      0.008189
N      2.34994      2.36057      7.59015        -0.022743     -0.021707      0.009491
N      2.07119     10.74408      7.49046        -0.012721     -0.003093     -0.010676
N     10.74078      2.29073      7.48375        -0.004544     -0.015755     -0.010146
N      2.56798      8.33036      7.60002         0.024983     -0.024297      0.002180
N      8.31440      2.72712      7.58398        -0.028165      0.023065     -0.000584
O      5.33035      2.87782      7.62687        -0.000542     -0.017007     -0.009386
O      5.55158      8.17965      7.67649        -0.002186      0.015494      0.005578
O      8.08954      5.70502      7.62311         0.016015      0.000921     -0.002287
O      2.79256      5.35258      7.67721        -0.021130     -0.002472      0.004975
Zr      6.54016      4.45703      7.59645        -0.014277      0.018506     -0.020928
Zr      4.34319      6.59887      7.67926         0.013945     -0.011349      0.015437
Zr      0.02582     10.81043      6.85235         0.002880     -0.000275      0.017923
