152
# total energy = -1059.94156148 eVH     10.35389      5.87395      7.64558        -0.246537     -0.017671      1.149561
H     10.62451     15.10445      7.64558         0.007753     -0.097331      0.917889
H     10.62451      5.87395     13.33282        -0.223321      0.094573     -0.791221
H     10.35389     15.10445     13.33282         0.083566     -0.291079     -0.904043
H      7.64558     10.35389      5.87395         0.917649     -0.088483      0.188477
H      7.64558     10.62451     15.10445         0.346061     -0.051616     -0.079866
H     13.33282     10.62451      5.87395        -0.860289      0.190068      0.200683
H     13.33282     10.35389     15.10445        -0.277005     -0.010148     -0.069067
H      5.87395      7.64558     10.35389         0.087553      0.409270     -0.031380
H     15.10445      7.64558     10.62451         0.033085      0.536262     -0.047378
H      5.87395     13.33282     10.62451        -0.014505     -0.968828      0.079775
H     15.10445     13.33282     10.35389        -0.068954     -0.320156      0.001369
H      5.87395     10.35389      7.64558         0.266568      0.117925      0.423520
H     15.10445     10.62451      7.64558        -0.131052     -0.176909      0.643312
H      5.87395     10.62451     13.33282        -0.106835      0.478859     -0.601820
H     15.10445     10.35389     13.33282         0.280413     -0.675520     -0.797373
H     10.35389      7.64558      5.87395        -0.045175      0.491055      0.336156
H     10.62451      7.64558     15.10445         0.206569      0.758994     -0.054466
H     10.62451     13.33282      5.87395         0.110863     -0.544005      0.202325
H     10.35389     13.33282     15.10445         0.054877     -0.288521     -0.127271
H      7.64558      5.87395     10.35389         0.340058      0.085923     -0.007454
H      7.64558     15.10445     10.62451         0.365634     -0.107932      0.153941
H     13.33282      5.87395     10.62451        -0.314877      0.122216     -0.037311
H     13.33282     15.10445     10.35389        -0.652382     -0.133605      0.141277
H     12.45634     12.45634     19.01126         0.254001      0.270460     -0.230595
H     19.01126     19.01126     19.01126        -0.245286     -0.269585     -0.244711
H     19.01126     12.45634     12.45634        -0.252564      0.268235      0.235626
H     12.45634     19.01126     12.45634         0.289396     -0.236014      0.234202
C     10.35284      5.61067      6.59456         0.398936     -0.437013     -1.472528
C     10.62556     15.36773      6.59456        -0.167385      0.546159     -0.618667
C     10.62556      5.61067     14.38384         0.396176     -0.357191      0.859089
C     10.35284     15.36773     14.38384        -0.232833      0.214073      1.118686
C      6.59456     10.35284      5.61067        -1.361320      0.017997     -0.259125
C      6.59456     10.62556     15.36773        -0.663809      0.058690      0.384583
C     14.38384     10.62556      5.61067         1.277162     -0.158911     -0.605561
C     14.38384     10.35284     15.36773         0.397715     -0.117173      0.352471
C      5.61067      6.59456     10.35284        -0.308507     -0.583305      0.003237
C     15.36773      6.59456     10.62556         0.412158     -1.057946      0.027530
C      5.61067     14.38384     10.62556        -0.106693      1.158356     -0.182972
C     15.36773     14.38384     10.35284         0.458250      0.639777     -0.026856
C      5.61067     10.35284      6.59456        -0.351615     -0.106958     -0.711466
C     15.36773     10.62556      6.59456         0.424703      0.120511     -0.791452
C      5.61067     10.62556     14.38384        -0.385897     -0.183858      1.241446
C     15.36773     10.35284     14.38384         0.291890      0.198318      1.565830
C     10.35284      6.59456      5.61067        -0.050869     -0.728532     -0.668971
C     10.62556      6.59456     15.36773        -0.098908     -0.823443      0.340203
C     10.62556     14.38384      5.61067        -0.437111      0.436183     -0.686550
C     10.35284     14.38384     15.36773        -0.152652      0.587007      0.402355
C      6.59456      5.61067     10.35284        -0.471702     -0.339667      0.068333
C      6.59456     15.36773     10.62556        -0.428887      0.485233      0.043412
C     14.38384      5.61067     10.62556         0.446099     -0.401968      0.008139
C     14.38384     15.36773     10.35284         1.126432      0.525348     -0.070227
C     10.40319      3.19606      7.29314         0.004422      0.607151     -0.339158
C     10.35913      4.25547      6.23373        -0.008243     -0.460163      0.301837
C      0.08601      7.29314      7.29314        -0.014393     -0.346495     -0.488022
C      0.13007      6.23373      6.23373        -0.090084      0.805353      0.071313
C      0.08601      3.19606      3.19606        -0.001198      0.655066      0.272678
C      0.13007      4.25547      4.25547         0.017626     -0.277883     -0.488532
C     10.40319      7.29314      3.19606        -0.067822     -1.140437      0.529721
C     10.35913      6.23373      4.25547        -0.039628      0.387830     -0.183434
C      7.29314     10.40319      3.19606        -1.062598     -0.056678      0.179243
C      6.23373     10.35913      4.25547         0.356471      0.078129     -0.528485
C      7.29314      0.08601      7.29314        -0.393032      0.036244     -0.609029
C      6.23373      0.13007      6.23373         0.178961      0.136044      0.138214
C      3.19606      0.08601      3.19606         0.683580      0.023945      0.169709
C      4.25547      0.13007      4.25547        -0.166378     -0.048644     -0.363927
C      3.19606     10.40319      7.29314         0.384793     -0.023218     -0.857445
C      4.25547     10.35913      6.23373        -0.173010     -0.089571      0.095222
C      3.19606      7.29314     10.40319         0.592988     -0.377244     -0.001311
C      4.25547      6.23373     10.35913        -0.135537      0.174514      0.001636
C      7.29314      7.29314      0.08601        -0.396958     -0.342832     -0.015228
C      6.23373      6.23373      0.13007         0.219919      0.205603     -0.046153
C      3.19606      3.19606      0.08601         0.291775      0.483325     -0.022450
C      4.25547      4.25547      0.13007        -0.393271     -0.217715     -0.028265
C      7.29314      3.19606     10.40319        -0.283658      0.584335     -0.016294
C      6.23373      4.25547     10.35913        -0.002732     -0.150151      0.025740
O     10.43466      3.58206      8.50569        -0.032448      0.112146      0.342000
O     10.54374     17.39634      8.50569         0.072689     -0.139117      0.589390
O     10.54374      3.58206     12.47271         0.025731      0.110113     -0.388802
O     10.43466     17.39634     12.47271         0.088735     -0.047919     -0.351206
O      8.50569     10.43466      3.58206         0.718616     -0.063479      0.027352
O      8.50569     10.54374     17.39634         0.424801      0.048743     -0.061360
O     12.47271     10.54374      3.58206        -0.651310      0.107430      0.201971
O     12.47271     10.43466     17.39634        -0.299148     -0.003383      0.004801
O      3.58206      8.50569     10.43466         0.051513      0.460478     -0.061398
O     17.39634      8.50569     10.54374        -0.061362      0.471299      0.052596
O      3.58206     12.47271     10.54374         0.109928     -0.586514      0.004884
O     17.39634     12.47271     10.43466        -0.162602     -0.728228     -0.065406
O      3.58206     10.43466      8.50569         0.221166     -0.065047      0.779809
O     17.39634     10.54374      8.50569        -0.136398      0.080768      0.639447
O      3.58206     10.54374     12.47271         0.004246     -0.001394     -0.275496
O     17.39634     10.43466     12.47271         0.044279     -0.014309     -0.205674
O     10.43466      8.50569      3.58206        -0.112811      0.592177     -0.098557
O     10.54374      8.50569     17.39634         0.057642      0.501395     -0.110973
O     10.54374     12.47271      3.58206         0.103340     -0.622502      0.135436
O     10.43466     12.47271     17.39634        -0.062942     -0.614044     -0.224323
O      8.50569      3.58206     10.43466         0.401087      0.032914     -0.029161
O      8.50569     17.39634     10.54374         0.627521     -0.148705      0.051303
O     12.47271      3.58206     10.54374        -0.510886      0.124436      0.037325
O     12.47271     17.39634     10.43466        -0.619788     -0.147013      0.029675
O     11.90042     11.90042     19.56718        -0.276358     -0.311006      0.239235
O     19.56718     19.56718     19.56718         0.300174      0.320160      0.297040
O     19.56718     11.90042     11.90042         0.286363     -0.325119     -0.231250
O     11.90042     19.56718     11.90042        -0.319038      0.231498     -0.203164
O      9.45224      1.03696      9.45224        -0.083551      0.076563     -0.070800
O      1.03696      9.45224      9.45224         0.091903     -0.114457     -0.046750
O      1.03696      1.03696      1.03696         0.076417      0.050565      0.104126
O      9.45224      9.45224      1.03696        -0.055536     -0.127415      0.131208
Zr     10.48920      2.52580     10.48920         0.037117     -0.078633      0.055054
Zr     10.48920     18.45260     10.48920        -0.170187      0.262860     -0.333345
Zr     10.48920     10.48920      2.52580         0.121959      0.350537     -0.357659
Zr     10.48920     10.48920     18.45260        -0.073071     -0.177230      0.173970
Zr      2.52580     10.48920     10.48920        -0.244543      0.125320      0.213641
Zr     18.45260     10.48920     10.48920         0.232100     -0.107735      0.030060
Pd      9.36839     14.17931      9.44068         0.017957      0.041059     -0.025780
Pd      8.64246     13.70145     13.00530         0.000082      0.003273     -0.028196
Pd     11.98876     14.42082      8.77927         0.020820      0.006440     -0.032317
Pd     12.80842     12.78424     10.58679        -0.017669      0.022837      0.008296
Pd     12.19881      7.10186     12.62918        -0.036503      0.005540     -0.008356
Pd     11.27919     14.76280     11.57927        -0.042272      0.039490     -0.041479
Pd     10.15022     12.42589     11.20237        -0.024603      0.016142     -0.052417
Pd     13.46322     12.12797      7.96477         0.009424      0.015561      0.003816
Pd     11.45445     11.54184      6.13269         0.012219      0.008895     -0.018939
Pd      7.82656      8.60183      7.58358         0.013138     -0.020132     -0.028734
Pd      8.75579     11.73000      6.92390        -0.018763     -0.011726     -0.016664
Pd     10.31062      9.44997      8.14957         0.002445      0.015757      0.008003
Pd      8.50048     14.42189      6.92408         0.024481      0.001757     -0.027226
Pd     12.35448      9.02469      6.57574         0.012724      0.005959      0.014777
Pd      9.72711      9.58781      5.56764         0.005788      0.009532      0.003638
Pd      6.88179      9.47895     12.18895        -0.020879     -0.011851     -0.003970
Pd     12.21882      6.65259      7.82851        -0.000288      0.023249      0.029262
Pd      5.96877     10.52051      9.74751        -0.002846     -0.043562     -0.026749
Pd      7.54450      7.07281     13.06078         0.040972      0.039885      0.141364
Ir     11.87108      9.69228     13.05957        -0.020949     -0.005684     -0.000336
Ir     13.61396      8.95927     11.41666        -0.014910      0.013685      0.020399
Ir      9.43942      8.78168     13.75779        -0.007189      0.020035      0.056393
Ir     10.59493     10.93434     14.81129        -0.027409     -0.004081      0.038283
Ir      7.33629     12.06357     11.38801        -0.027028     -0.013825     -0.001733
Ir     14.72830     10.78892     10.02462        -0.007586      0.017586      0.025395
Ir     12.21946     10.43221      9.65274        -0.015974      0.067772      0.002277
Ir      8.77759     11.03698     13.05933        -0.014104      0.010768     -0.031841
Ir     10.18372      9.80529     11.27370        -0.029244      0.034449     -0.025921
Ir     13.85005     11.33875     12.34038        -0.056094      0.009624      0.012014
Ir     11.78821     12.30585     13.12479        -0.067973     -0.001477     -0.013344
Ir      8.55346     11.04409      9.43139         0.011348      0.026999     -0.021153
Ir     11.61403      7.94190     10.03648        -0.012738      0.009345      0.017084
Ir      7.20344     12.93547      8.69350         0.014085      0.051734      0.002434
Ir      9.50839      6.99075      9.05542        -0.002392      0.027537      0.023656
Ir      8.10366      8.71807     10.14164        -0.012875     -0.001836     -0.037939
Ir     10.77288     12.07061      8.58058         0.006747     -0.002673     -0.021072
Ir      9.64573      7.33867     11.60866        -0.050412      0.032049      0.008322
Ir     13.70942      8.64729      8.76507        -0.005474      0.019104      0.021077
