152
# total energy = -1060.02743825 eVH     10.35389      5.87395      7.64558        -0.265984      0.007756      1.142235
H     10.62451     15.10445      7.64558         0.051174     -0.090078      0.926384
H     10.62451      5.87395     13.33282        -0.242237      0.085821     -0.788853
H     10.35389     15.10445     13.33282         0.099222     -0.298122     -0.893608
H      7.64558     10.35389      5.87395         0.932320     -0.117919      0.182893
H      7.64558     10.62451     15.10445         0.335053     -0.042725     -0.076475
H     13.33282     10.62451      5.87395        -0.869929      0.210025      0.203009
H     13.33282     10.35389     15.10445        -0.277284     -0.011726     -0.068810
H      5.87395      7.64558     10.35389         0.088792      0.415018     -0.013738
H     15.10445      7.64558     10.62451         0.010280      0.509213     -0.032686
H      5.87395     13.33282     10.62451        -0.017521     -0.963015      0.076773
H     15.10445     13.33282     10.35389        -0.079892     -0.320302      0.004081
H      5.87395     10.35389      7.64558         0.273477      0.117316      0.414782
H     15.10445     10.62451      7.64558        -0.125289     -0.174704      0.653343
H      5.87395     10.62451     13.33282        -0.089345      0.459879     -0.617927
H     15.10445     10.35389     13.33282         0.259702     -0.644702     -0.815297
H     10.35389      7.64558      5.87395        -0.044672      0.481636      0.331535
H     10.62451      7.64558     15.10445         0.224788      0.753408     -0.043074
H     10.62451     13.33282      5.87395         0.123839     -0.565553      0.205723
H     10.35389     13.33282     15.10445         0.043207     -0.286583     -0.136100
H      7.64558      5.87395     10.35389         0.339818      0.094157      0.018468
H      7.64558     15.10445     10.62451         0.372191     -0.114560      0.158463
H     13.33282      5.87395     10.62451        -0.317301      0.127611     -0.035654
H     13.33282     15.10445     10.35389        -0.652635     -0.132352      0.145536
H     12.45634     12.45634     19.01126         0.255050      0.270720     -0.229505
H     19.01126     19.01126     19.01126        -0.245801     -0.268603     -0.245523
H     19.01126     12.45634     12.45634        -0.251542      0.269176      0.235066
H     12.45634     19.01126     12.45634         0.290646     -0.236073      0.234052
C     10.35284      5.61067      6.59456         0.396952     -0.426200     -1.457036
C     10.62556     15.36773      6.59456        -0.157879      0.574172     -0.631077
C     10.62556      5.61067     14.38384         0.386649     -0.347532      0.844419
C     10.35284     15.36773     14.38384        -0.233345      0.224739      1.106647
C      6.59456     10.35284      5.61067        -1.376520      0.019654     -0.242546
C      6.59456     10.62556     15.36773        -0.652202      0.060391      0.380668
C     14.38384     10.62556      5.61067         1.308175     -0.173112     -0.622544
C     14.38384     10.35284     15.36773         0.374227     -0.122594      0.358003
C      5.61067      6.59456     10.35284        -0.293771     -0.629462     -0.014361
C     15.36773      6.59456     10.62556         0.420838     -0.995717      0.031000
C      5.61067     14.38384     10.62556        -0.123939      1.161889     -0.180735
C     15.36773     14.38384     10.35284         0.458405      0.647050     -0.025987
C      5.61067     10.35284      6.59456        -0.366624     -0.101070     -0.715747
C     15.36773     10.62556      6.59456         0.417304      0.120890     -0.745564
C      5.61067     10.62556     14.38384        -0.383858     -0.174377      1.227145
C     15.36773     10.35284     14.38384         0.281897      0.191116      1.500871
C     10.35284      6.59456      5.61067        -0.050685     -0.713368     -0.624258
C     10.62556      6.59456     15.36773        -0.093262     -0.837738      0.345982
C     10.62556     14.38384      5.61067        -0.459472      0.414641     -0.700080
C     10.35284     14.38384     15.36773        -0.153192      0.591572      0.413953
C      6.59456      5.61067     10.35284        -0.503908     -0.338473      0.036892
C      6.59456     15.36773     10.62556        -0.393501      0.463932      0.051339
C     14.38384      5.61067     10.62556         0.448313     -0.385039      0.004151
C     14.38384     15.36773     10.35284         1.121197      0.502667     -0.071264
C     10.40319      3.19606      7.29314         0.001330      0.646139     -0.336985
C     10.35913      4.25547      6.23373         0.004763     -0.442331      0.290257
C      0.08601      7.29314      7.29314        -0.013155     -0.357894     -0.498322
C      0.13007      6.23373      6.23373        -0.077571      0.832941      0.061066
C      0.08601      3.19606      3.19606        -0.001794      0.673107      0.269626
C      0.13007      4.25547      4.25547         0.024415     -0.270137     -0.528541
C     10.40319      7.29314      3.19606        -0.067179     -1.156192      0.557884
C     10.35913      6.23373      4.25547        -0.038078      0.371377     -0.196626
C      7.29314     10.40319      3.19606        -1.083501     -0.058060      0.186234
C      6.23373     10.35913      4.25547         0.363812      0.082242     -0.537985
C      7.29314      0.08601      7.29314        -0.413632      0.033923     -0.556011
C      6.23373      0.13007      6.23373         0.179188      0.131897      0.130163
C      3.19606      0.08601      3.19606         0.698118      0.024351      0.164136
C      4.25547      0.13007      4.25547        -0.170153     -0.052956     -0.365247
C      3.19606     10.40319      7.29314         0.385410     -0.024961     -0.870931
C      4.25547     10.35913      6.23373        -0.161110     -0.083388      0.096103
C      3.19606      7.29314     10.40319         0.600449     -0.387939      0.001738
C      4.25547      6.23373     10.35913        -0.116831      0.181411     -0.000002
C      7.29314      7.29314      0.08601        -0.403915     -0.325831     -0.015126
C      6.23373      6.23373      0.13007         0.196878      0.192743     -0.058859
C      3.19606      3.19606      0.08601         0.290355      0.479004     -0.023578
C      4.25547      4.25547      0.13007        -0.399451     -0.227745     -0.030776
C      7.29314      3.19606     10.40319        -0.281234      0.589895     -0.013114
C      6.23373      4.25547     10.35913         0.003684     -0.122565      0.021692
O     10.43466      3.58206      8.50569        -0.029648      0.101898      0.328132
O     10.54374     17.39634      8.50569         0.065784     -0.133462      0.592013
O     10.54374      3.58206     12.47271         0.027096      0.107517     -0.390685
O     10.43466     17.39634     12.47271         0.088877     -0.045443     -0.368250
O      8.50569     10.43466      3.58206         0.713021     -0.060783      0.013334
O      8.50569     10.54374     17.39634         0.455543      0.055263     -0.071435
O     12.47271     10.54374      3.58206        -0.652309      0.114133      0.204557
O     12.47271     10.43466     17.39634        -0.286500     -0.004947      0.014523
O      3.58206      8.50569     10.43466         0.044390      0.461622     -0.066194
O     17.39634      8.50569     10.54374        -0.061569      0.460272      0.055276
O      3.58206     12.47271     10.54374         0.113878     -0.583698      0.002686
O     17.39634     12.47271     10.43466        -0.168547     -0.738397     -0.060760
O      3.58206     10.43466      8.50569         0.216448     -0.063139      0.779518
O     17.39634     10.54374      8.50569        -0.114322      0.077146      0.590872
O      3.58206     10.54374     12.47271        -0.000054     -0.001460     -0.269582
O     17.39634     10.43466     12.47271         0.042010     -0.013423     -0.214476
O     10.43466      8.50569      3.58206        -0.104472      0.574461     -0.115143
O     10.54374      8.50569     17.39634         0.065544      0.502409     -0.097763
O     10.54374     12.47271      3.58206         0.105180     -0.623826      0.134121
O     10.43466     12.47271     17.39634        -0.060985     -0.632268     -0.241803
O      8.50569      3.58206     10.43466         0.398372      0.028507     -0.032582
O      8.50569     17.39634     10.54374         0.627796     -0.152758      0.049988
O     12.47271      3.58206     10.54374        -0.508363      0.126782      0.037115
O     12.47271     17.39634     10.43466        -0.621568     -0.138253      0.036572
O     11.90042     11.90042     19.56718        -0.274283     -0.308358      0.236581
O     19.56718     19.56718     19.56718         0.302006      0.318789      0.299704
O     19.56718     11.90042     11.90042         0.285376     -0.324868     -0.230845
O     11.90042     19.56718     11.90042        -0.317632      0.230147     -0.201889
O      9.45224      1.03696      9.45224        -0.084979      0.083343     -0.066581
O      1.03696      9.45224      9.45224         0.100065     -0.116858     -0.044626
O      1.03696      1.03696      1.03696         0.082486      0.055179      0.099517
O      9.45224      9.45224      1.03696        -0.060036     -0.131304      0.131145
Zr     10.48920      2.52580     10.48920         0.032220     -0.087706      0.067229
Zr     10.48920     18.45260     10.48920        -0.169648      0.262098     -0.344867
Zr     10.48920     10.48920      2.52580         0.122086      0.355197     -0.354552
Zr     10.48920     10.48920     18.45260        -0.080544     -0.194489      0.172933
Zr      2.52580     10.48920     10.48920        -0.253308      0.124638      0.221438
Zr     18.45260     10.48920     10.48920         0.230256     -0.111665      0.006027
Pd      9.38823     14.22664      9.38828         0.005066      0.053256     -0.049253
Pd      8.63132     13.71150     12.98225        -0.009733     -0.014778      0.002957
Pd     12.01872     14.41558      8.75393         0.021212     -0.002032     -0.012743
Pd     12.78142     12.80222     10.61199        -0.022994      0.016135      0.030977
Pd     12.16433      7.10148     12.60552        -0.022462      0.015888      0.016501
Pd     11.23615     14.80595     11.52921        -0.035326      0.037931     -0.029932
Pd     10.10892     12.46608     11.14587        -0.038868      0.040942     -0.037704
Pd     13.47746     12.13515      7.97372         0.005071      0.000655      0.013934
Pd     11.47532     11.55252      6.11625         0.007215      0.006523     -0.005780
Pd      7.84512      8.58339      7.55305         0.016604     -0.037366     -0.012119
Pd      8.74418     11.72555      6.89836        -0.008052      0.007730     -0.014280
Pd     10.31511      9.45659      8.13522        -0.007680      0.012632      0.012181
Pd      8.50900     14.42594      6.87253        -0.001459      0.010652     -0.035152
Pd     12.37627      9.03027      6.57707        -0.011606      0.008178      0.012540
Pd      9.74261      9.60585      5.55093         0.003338      0.002351      0.004605
Pd      6.88265      9.46260     12.19230        -0.013106      0.003699     -0.004930
Pd     12.21011      6.67659      7.85233        -0.001048      0.015660      0.024280
Pd      5.96300     10.48432      9.73789        -0.012912     -0.028310     -0.011693
Pd      7.57278      7.10479     13.20471         0.008259      0.039597      0.072134
Ir     11.82834      9.69110     13.06130        -0.024927      0.004360     -0.007260
Ir     13.59075      8.98258     11.43254        -0.020173      0.012170      0.018597
Ir      9.42701      8.81627     13.82743        -0.002461     -0.000631      0.069407
Ir     10.57493     10.91262     14.85730        -0.010201     -0.005045      0.054644
Ir      7.30940     12.04457     11.37484        -0.014364     -0.024721      0.002525
Ir     14.70339     10.82105     10.06932        -0.013732      0.022327      0.038690
Ir     12.20597     10.46155      9.65149        -0.007367      0.031198      0.010147
Ir      8.78052     11.04866     13.03832        -0.008113      0.016219     -0.038437
Ir     10.15813      9.83552     11.24477        -0.013670      0.027964     -0.036712
Ir     13.79614     11.35512     12.38692        -0.044853      0.008451      0.034566
Ir     11.69904     12.29098     13.12015        -0.075840      0.002545     -0.020128
Ir      8.54501     11.06250      9.40158        -0.015014      0.007342     -0.027281
Ir     11.59887      7.96266     10.05358         0.001922      0.014996      0.019877
Ir      7.22874     12.97356      8.69470         0.023002      0.029759      0.008849
Ir      9.51114      7.00116      9.07986         0.008240      0.000252      0.028236
Ir      8.08246      8.73753     10.11289        -0.017697      0.007339     -0.009148
Ir     10.76739     12.08214      8.54968        -0.007375      0.011314     -0.021558
Ir      9.58978      7.39839     11.63562        -0.020205      0.048250      0.031003
Ir     13.70342      8.67363      8.79250        -0.001078      0.032499      0.014451
