26
# total energy = -205.61010108 eVC      0.70530      1.25356      7.50000        -0.011255     -0.099937      0.000000
C     10.79309      6.56715      7.50000         0.100030     -0.036685     -0.000000
C      0.73735     11.42828      7.50000         0.005943      0.079698      0.000000
C     11.52885      5.33186      7.50000         0.011255      0.099937     -0.000000
C      1.44106      0.01827      7.50000        -0.100030      0.036685     -0.000000
C     11.49680     -4.84286      7.50000        -0.005943     -0.079698      0.000000
C     10.79590     -3.65110      7.50000        -0.043424      0.092886      0.000000
C     10.85683      4.12306      7.50000        -0.043082     -0.025124      0.000000
C      2.82976      0.04141      7.50000        -0.026979      0.006363     -0.000000
C      1.43825     10.23652      7.50000         0.043424     -0.092886     -0.000000
C      1.37732      2.46236      7.50000         0.043082      0.025124      0.000000
C      9.40439      6.54401      7.50000         0.026979     -0.006363     -0.000000
N      7.77517      0.25909      7.50000        -0.369135     -0.018684     -0.000000
N      4.45898      6.32633      7.50000         0.369135      0.018684     -0.000000
N      4.01207      0.08500      7.50000         0.010979     -0.002587      0.000000
N     10.22750     -2.61252      7.50000         0.053185     -0.069450      0.000000
N     10.29332      3.08219      7.50000         0.044047      0.058166      0.000000
N      8.22208      6.50042      7.50000        -0.010979      0.002587     -0.000000
N      2.00665      9.19794      7.50000        -0.053185      0.069450     -0.000000
N      1.94083      3.50323      7.50000        -0.044047     -0.058166      0.000000
Ir      2.98636      7.53191      7.50000        -0.023787      0.041720      0.000000
Ir      2.98036      5.13132      7.50000        -0.072705     -0.053903      0.000000
Ir      6.29692      6.40756      7.50000        -0.186230      0.002111      0.000000
Ir      9.24779     -0.94649      7.50000         0.023787     -0.041720     -0.000000
Ir      9.25379      1.45410      7.50000         0.072705      0.053903     -0.000000
Ir      5.93723      0.17786      7.50000         0.186230     -0.002111      0.000000
