152
# total energy = -1110.36502544 eVH     10.35389      5.87395      7.64558        -0.343718     -0.155829      1.036299
H     10.62451     15.10445      7.64558         0.379820      0.088630      0.945300
H     10.62451      5.87395     13.33282        -0.309000     -0.714334     -1.409843
H     10.35389     15.10445     13.33282        -0.634262      0.382374     -0.324272
H      7.64558     10.35389      5.87395         0.542035     -0.539762     -0.082480
H      7.64558     10.62451     15.10445         0.358641     -0.242309      0.040938
H     13.33282     10.62451      5.87395        -0.528649      0.612867     -0.018315
H     13.33282     10.35389     15.10445        -0.530557      0.414004      0.162159
H      5.87395      7.64558     10.35389         0.142637      0.502624      0.034965
H     15.10445      7.64558     10.62451         0.429332      0.865723      0.253263
H      5.87395     13.33282     10.62451        -0.228694     -0.450213      0.363900
H     15.10445     13.33282     10.35389         0.031266     -0.309997     -0.391091
H      5.87395     10.35389      7.64558        -0.072040     -0.351489      1.439684
H     15.10445     10.62451      7.64558         0.203933      0.417645      1.261946
H      5.87395     10.62451     13.33282        -0.152221     -0.340710     -1.134629
H     15.10445     10.35389     13.33282         0.536800      0.882761     -1.511998
H     10.35389      7.64558      5.87395        -0.533439      0.496869     -0.193718
H     10.62451      7.64558     15.10445        -0.137129      0.542345      0.197727
H     10.62451     13.33282      5.87395         0.902622     -1.402987     -0.329417
H     10.35389     13.33282     15.10445         0.283859     -0.548480     -0.073424
H      7.64558      5.87395     10.35389         0.723563      0.174235     -0.142967
H      7.64558     15.10445     10.62451         1.973838      0.813398      0.192367
H     13.33282      5.87395     10.62451        -2.690032     -0.984933     -0.429506
H     13.33282     15.10445     10.35389        -0.871177     -0.042316     -0.252664
H     12.45634     12.45634     19.01126         0.271833      0.257849     -0.227529
H     19.01126     19.01126     19.01126        -0.266743     -0.254633     -0.238187
H     19.01126     12.45634     12.45634        -0.282682      0.281074      0.187113
H     12.45634     19.01126     12.45634         0.256041     -0.251782      0.235851
C     10.35284      5.61067      6.59456         0.096825     -0.500823     -1.253325
C     10.62556     15.36773      6.59456         0.163018      0.768146     -0.846768
C     10.62556      5.61067     14.38384         0.173007     -0.325681      1.819335
C     10.35284     15.36773     14.38384         0.118766      0.396242      1.809082
C      6.59456     10.35284      5.61067        -1.121200     -0.111745     -0.849658
C      6.59456     10.62556     15.36773        -0.678305     -0.106779      0.736150
C     14.38384     10.62556      5.61067         0.882176     -0.114481     -0.999706
C     14.38384     10.35284     15.36773         1.206337      0.164613      1.102081
C      5.61067      6.59456     10.35284        -0.686640     -0.812606     -0.165502
C     15.36773      6.59456     10.62556         1.947979     -0.196215     -0.178696
C      5.61067     14.38384     10.62556        -1.576849     -0.005420     -0.114454
C     15.36773     14.38384     10.35284         0.486596      0.052956      0.028791
C      5.61067     10.35284      6.59456        -0.272727      0.202013     -1.357671
C     15.36773     10.62556      6.59456         0.276121     -0.202223     -1.000681
C      5.61067     10.62556     14.38384        -0.276240      0.386471      1.420260
C     15.36773     10.35284     14.38384         0.069322     -0.428521      1.903950
C     10.35284      6.59456      5.61067        -0.197966     -0.919312     -0.691246
C     10.62556      6.59456     15.36773        -0.098866     -0.807066      1.048053
C     10.62556     14.38384      5.61067        -0.485616      2.045764     -0.784285
C     10.35284     14.38384     15.36773        -0.293465      1.470318      0.470733
C      6.59456      5.61067     10.35284        -0.961183     -0.412241      0.078287
C      6.59456     15.36773     10.62556        -1.338846      0.350916     -0.332454
C     14.38384      5.61067     10.62556         1.294954     -1.156968      0.156108
C     14.38384     15.36773     10.35284         0.408330      0.316696      0.057755
C     10.40319      3.19606      7.29314         0.003144      0.310891     -0.098826
C     10.35913      4.25547      6.23373         0.137413     -0.511964      0.027798
C      0.08601      7.29314      7.29314        -0.053868     -0.307989     -0.430329
C      0.13007      6.23373      6.23373        -0.126436      0.723769      0.041777
C      0.08601      3.19606      3.19606        -0.109522      1.622828      0.173601
C      0.13007      4.25547      4.25547        -0.085907     -0.408066     -1.248839
C     10.40319      7.29314      3.19606         0.017049     -0.425236      0.130043
C     10.35913      6.23373      4.25547         0.260060      0.079360     -0.489088
C      7.29314     10.40319      3.19606        -1.661170      0.005891      0.326353
C      6.23373     10.35913      4.25547         0.651564      0.076711     -0.608949
C      7.29314      0.08601      7.29314        -0.398216     -0.009910     -0.297716
C      6.23373      0.13007      6.23373         0.633655     -0.053185      0.274368
C      3.19606      0.08601      3.19606         0.661583     -0.015544      0.189733
C      4.25547      0.13007      4.25547        -0.376510     -0.063583     -0.493795
C      3.19606     10.40319      7.29314         0.380056      0.018629     -0.319344
C      4.25547     10.35913      6.23373        -0.725542      0.060106      0.372814
C      3.19606      7.29314     10.40319         0.304401     -0.218673     -0.006232
C      4.25547      6.23373     10.35913         0.053218      0.649171      0.093389
C      7.29314      7.29314      0.08601        -0.717969     -0.595017     -0.016407
C      6.23373      6.23373      0.13007         0.813402      1.144499     -0.078377
C      3.19606      3.19606      0.08601         0.807877      0.489350      0.012652
C      4.25547      4.25547      0.13007        -0.325505     -1.713769     -0.121867
C      7.29314      3.19606     10.40319        -0.333264      0.278983     -0.003289
C      6.23373      4.25547     10.35913         0.520078     -0.036332      0.229794
O     10.43466      3.58206      8.50569        -0.047411      0.181144      0.258533
O     10.54374     17.39634      8.50569         0.041483     -0.231143      0.485136
O     10.54374      3.58206     12.47271         0.085573     -0.057290     -0.043585
O     10.43466     17.39634     12.47271        -0.023220     -0.139404     -0.279971
O      8.50569     10.43466      3.58206         0.981824      0.182209      0.389443
O      8.50569     10.54374     17.39634         0.565870      0.083645     -0.226616
O     12.47271     10.54374      3.58206        -0.431651     -0.038149      0.189549
O     12.47271     10.43466     17.39634        -0.524986     -0.070698     -0.199749
O      3.58206      8.50569     10.43466         0.179254      0.439894     -0.031109
O     17.39634      8.50569     10.54374        -0.228134      0.714005      0.042071
O      3.58206     12.47271     10.54374         0.158895     -0.665962      0.024191
O     17.39634     12.47271     10.43466        -0.185324     -0.484235     -0.013257
O      3.58206     10.43466      8.50569         0.220344     -0.059126      0.400376
O     17.39634     10.54374      8.50569        -0.169829      0.036614      0.410165
O      3.58206     10.54374     12.47271         0.143202      0.020994     -0.308027
O     17.39634     10.43466     12.47271         0.066596     -0.050212     -0.089740
O     10.43466      8.50569      3.58206        -0.001365      0.279050      0.179103
O     10.54374      8.50569     17.39634         0.071038      0.440517     -0.183152
O     10.54374     12.47271      3.58206        -0.222630     -0.964456      0.348287
O     10.43466     12.47271     17.39634        -0.084978     -0.448362     -0.244474
O      8.50569      3.58206     10.43466         0.498587      0.195357     -0.013405
O      8.50569     17.39634     10.54374         0.657646     -0.193570      0.022703
O     12.47271      3.58206     10.54374        -0.735798      0.277823      0.036460
O     12.47271     17.39634     10.43466        -0.443460     -0.199440     -0.044436
O     11.90042     11.90042     19.56718        -0.345033     -0.307399      0.258719
O     19.56718     19.56718     19.56718         0.325917      0.310806      0.281565
O     19.56718     11.90042     11.90042         0.278581     -0.278426     -0.141397
O     11.90042     19.56718     11.90042        -0.307201      0.288315     -0.234026
O      9.45224      1.03696      9.45224        -0.056976      0.070877     -0.048503
O      1.03696      9.45224      9.45224         0.035372     -0.072570     -0.073158
O      1.03696      1.03696      1.03696         0.056674      0.137798      0.105443
O      9.45224      9.45224      1.03696        -0.130508     -0.088346      0.105121
Zr     10.48920      2.52580     10.48920         0.143606     -0.163350     -0.161213
Zr     10.48920     18.45260     10.48920        -0.092179      0.178839     -0.041357
Zr     10.48920     10.48920      2.52580         0.325833     -0.309370     -0.197797
Zr     10.48920     10.48920     18.45260         0.002024     -0.083456      0.209086
Zr      2.52580     10.48920     10.48920        -0.064198      0.163116     -0.051103
Zr     18.45260     10.48920     10.48920         0.135639     -0.121912     -0.247270
Ir     12.05902     12.48888     10.46359        -0.006094     -0.002417     -0.009604
Ir     11.15623      7.41752     10.32689         0.014021      0.003295     -0.014977
Ir      8.80205      7.39491     11.58812         0.029355      0.000824     -0.019053
Ir      7.48596     11.66647      7.65362        -0.001250     -0.008882      0.003461
Ir     11.59559     12.09660      7.12599        -0.004948     -0.008455     -0.004837
Ir     13.73680      8.97581      7.56584         0.021720      0.012483     -0.020995
Ir     12.50507     13.95383      8.42213        -0.011716      0.001087      0.001096
Ir      9.71556     11.26892      5.57183         0.008056     -0.004248     -0.004931
Ir      9.08612     13.47479      7.07547        -0.000168     -0.000591      0.000487
Ir      9.28940      9.66312      7.53742        -0.007372     -0.005525      0.004136
Ir     13.25347      7.04139     11.95268         0.012156     -0.007431      0.000724
Ir     13.54188      7.02608      9.12212         0.038128      0.001237      0.004382
Ir     11.01342      7.60962     12.86756         0.015974     -0.003928     -0.022711
Ir     13.61583     11.55714      8.75762         0.003396      0.009405     -0.004370
Ir     11.50431      9.66294      6.23952        -0.000406     -0.008119     -0.000879
Ir      7.14073      9.20421      8.94845         0.019027     -0.024891     -0.000876
Ir     14.05912     11.41820     11.66567         0.004865      0.006632     -0.004016
Ir     11.64923      9.87499      8.90577        -0.013873     -0.013608     -0.011995
Ir      9.42290      9.53571     10.25670        -0.001063     -0.045733     -0.014842
Ir     13.85289      9.39175     10.19263         0.018380      0.001825     -0.000902
Ir     13.80020      9.15134     12.91890         0.013561      0.007594     -0.003601
Ir     11.68011      9.76626     11.57786         0.002230     -0.004950     -0.008305
Ir      9.91125     11.76378      8.98056         0.005048     -0.005018     -0.011558
Ir      9.02747      7.44147      8.85456         0.032114      0.018364     -0.008892
Ir     11.49914      7.59659      7.79890         0.035518     -0.016713     -0.021127
Ir      9.24172      9.51220     13.02386         0.004627     -0.028440     -0.009944
Ir      7.53148     13.93063      8.99000        -0.007234     -0.010013      0.004546
Ir     10.91087     14.13069     11.94535        -0.016834     -0.002459      0.009672
Ir     10.12959     14.17988      9.52235        -0.005743     -0.011502     -0.004200
Ir      9.80170     11.71347     11.72826        -0.012989     -0.005959     -0.002523
Ir      7.58911     11.60868     10.21091        -0.004105     -0.019034      0.006327
Ir      8.37822     13.77756     11.58604        -0.012320     -0.017880      0.002384
Ir      7.52891     11.61358     12.83172        -0.000076     -0.023286     -0.003542
Ir      9.76402     11.64543     14.34393         0.003970     -0.007705      0.006459
Ir     13.50465     13.87517     12.19430        -0.006405      0.011280     -0.001932
Ir     11.99680     12.06323     13.08810         0.004047     -0.016409      0.008181
Ir     11.56504      9.82591     14.21553         0.009852     -0.011962     -0.007219
Ir      7.13503      9.41727     11.50878         0.016475     -0.030590     -0.013503
