35
# total energy = -286.24927930 eVC      6.62182     10.17971      7.54800         0.026296      0.123618     -0.000296
C      8.01138      9.81160      7.54210        -0.010199     -0.131550      0.005357
C      9.30166      5.59365      7.55734        -0.137988      0.058994     -0.005921
C      1.50111      5.33636      7.55851         0.163869     -0.051786     -0.004467
C      4.18008      0.74942      7.57658        -0.026655     -0.101014      0.000629
C      2.79023      1.11784      7.56774         0.036407      0.126016      0.004072
C      0.71143      4.14803      7.55857        -0.113910     -0.024985      0.007194
C      1.10810      2.76662      7.56044         0.122224      0.009141      0.002030
C      5.35282      1.56339      7.58279        -0.071652      0.131003     -0.003148
C      5.44891      9.36662      7.55494         0.076408     -0.162017     -0.002048
C     10.09212      6.78202      7.54688         0.092325      0.027750      0.002603
C      9.69476      8.16349      7.54159        -0.120923     -0.013678     -0.000389
C      0.75005      6.54440      7.55148        -0.011659      0.057906      0.002939
C      1.18206      7.92384      7.54601         0.016844     -0.022973      0.005718
C     10.05348      4.38622      7.55696        -0.008063     -0.066629     -0.005387
C      9.62048      3.00694      7.56075        -0.018897      0.012381      0.002587
C      4.22657     10.09355      7.55043        -0.051736      0.022112     -0.001545
C      2.85671      9.63333      7.54502         0.018598     -0.015682      0.002157
C      6.57514      0.83573      7.57577         0.053426      0.001357      0.000632
C      7.94508      1.29668      7.56907        -0.010269      0.022271      0.007950
N      8.77845      0.21593      7.56556         0.151344     -0.036500     -0.004859
N      0.08428      8.73491      7.54286        -0.033870      0.138335      0.000577
N      8.43572      8.56106      7.54302         0.005116      0.019430     -0.000254
N      2.36710      2.36841      7.56180        -0.023393     -0.005423      0.005477
N      2.02324     10.71408      7.53822        -0.146531      0.031015      0.001529
N     10.71804      2.19570      7.55819         0.040899     -0.146592     -0.000768
N      2.46781      8.33950      7.54726         0.163456     -0.176733      0.000876
N      8.33473      2.59087      7.56712        -0.174687      0.167422     -0.001678
O      5.27442      2.85268      7.59433        -0.025727      0.031864     -0.011902
O      5.52781      8.07724      7.56388         0.020218     -0.034798     -0.004609
O      8.01101      5.64603      7.56618        -0.034799      0.021748     -0.001278
O      2.79182      5.28301      7.56527         0.035653     -0.012573     -0.005117
Pd      6.84085      4.05495      7.57939        -0.080824      0.087154      0.000014
Pd      3.96114      6.87479      7.56368         0.091910     -0.087492     -0.003978
Pd      0.02568     10.73177      7.53835        -0.013210      0.000905      0.005302
