152
# total energy = -1110.38028547 eVH     10.35389      5.87395      7.64558        -0.359838     -0.140504      1.079200
H     10.62451     15.10445      7.64558         0.354666      0.081468      0.937679
H     10.62451      5.87395     13.33282        -0.320150     -0.695277     -1.380984
H     10.35389     15.10445     13.33282        -0.611822      0.413727     -0.326415
H      7.64558     10.35389      5.87395         0.544079     -0.528767     -0.089506
H      7.64558     10.62451     15.10445         0.375189     -0.240124      0.044940
H     13.33282     10.62451      5.87395        -0.553544      0.631412     -0.033960
H     13.33282     10.35389     15.10445        -0.528067      0.406604      0.161466
H      5.87395      7.64558     10.35389         0.147608      0.534375      0.033084
H     15.10445      7.64558     10.62451         0.431271      0.957655      0.264052
H      5.87395     13.33282     10.62451        -0.224532     -0.481417      0.362520
H     15.10445     13.33282     10.35389         0.028550     -0.303954     -0.383567
H      5.87395     10.35389      7.64558        -0.083665     -0.375171      1.446854
H     15.10445     10.62451      7.64558         0.213399      0.470683      1.298790
H      5.87395     10.62451     13.33282        -0.191137     -0.359182     -1.179217
H     15.10445     10.35389     13.33282         0.579509      0.940833     -1.525732
H     10.35389      7.64558      5.87395        -0.553095      0.507738     -0.181470
H     10.62451      7.64558     15.10445        -0.140104      0.496785      0.180233
H     10.62451     13.33282      5.87395         0.884236     -1.369873     -0.320316
H     10.35389     13.33282     15.10445         0.254780     -0.556964     -0.090857
H      7.64558      5.87395     10.35389         0.715991      0.171968     -0.155921
H      7.64558     15.10445     10.62451         1.980279      0.777215      0.212006
H     13.33282      5.87395     10.62451        -2.687618     -0.953067     -0.472849
H     13.33282     15.10445     10.35389        -0.877513     -0.050153     -0.250838
H     12.45634     12.45634     19.01126         0.271901      0.257964     -0.227135
H     19.01126     19.01126     19.01126        -0.266859     -0.254909     -0.238280
H     19.01126     12.45634     12.45634        -0.283134      0.281265      0.186505
H     12.45634     19.01126     12.45634         0.255952     -0.251105      0.236072
C     10.35284      5.61067      6.59456         0.083120     -0.500687     -1.231605
C     10.62556     15.36773      6.59456         0.173919      0.758672     -0.820142
C     10.62556      5.61067     14.38384         0.183189     -0.312677      1.803787
C     10.35284     15.36773     14.38384         0.101924      0.386663      1.804401
C      6.59456     10.35284      5.61067        -1.130373     -0.110353     -0.866033
C      6.59456     10.62556     15.36773        -0.696293     -0.101073      0.767338
C     14.38384     10.62556      5.61067         0.863429     -0.110795     -1.000336
C     14.38384     10.35284     15.36773         1.199185      0.166970      1.105673
C      5.61067      6.59456     10.35284        -0.673417     -0.863882     -0.178384
C     15.36773      6.59456     10.62556         1.974695     -0.258317     -0.184146
C      5.61067     14.38384     10.62556        -1.573237     -0.006916     -0.129648
C     15.36773     14.38384     10.35284         0.486179      0.072865      0.013803
C      5.61067     10.35284      6.59456        -0.275527      0.198987     -1.344927
C     15.36773     10.62556      6.59456         0.284786     -0.234026     -0.997344
C      5.61067     10.62556     14.38384        -0.261455      0.421193      1.449065
C     15.36773     10.35284     14.38384         0.046629     -0.448383      1.931662
C     10.35284      6.59456      5.61067        -0.180560     -0.884449     -0.687340
C     10.62556      6.59456     15.36773        -0.110085     -0.762474      1.054127
C     10.62556     14.38384      5.61067        -0.498800      2.012920     -0.774692
C     10.35284     14.38384     15.36773        -0.277229      1.417010      0.488886
C      6.59456      5.61067     10.35284        -0.970090     -0.411668      0.085465
C      6.59456     15.36773     10.62556        -1.297202      0.370622     -0.330753
C     14.38384      5.61067     10.62556         1.287549     -1.252154      0.181138
C     14.38384     15.36773     10.35284         0.440113      0.314294      0.072331
C     10.40319      3.19606      7.29314         0.001806      0.308548     -0.103506
C     10.35913      4.25547      6.23373         0.139750     -0.538286      0.018041
C      0.08601      7.29314      7.29314        -0.053218     -0.297284     -0.424788
C      0.13007      6.23373      6.23373        -0.122414      0.702014      0.029630
C      0.08601      3.19606      3.19606        -0.107304      1.635314      0.171282
C      0.13007      4.25547      4.25547        -0.087153     -0.400954     -1.230168
C     10.40319      7.29314      3.19606         0.016202     -0.432486      0.124711
C     10.35913      6.23373      4.25547         0.261195      0.082841     -0.509885
C      7.29314     10.40319      3.19606        -1.671916      0.007548      0.325233
C      6.23373     10.35913      4.25547         0.657130      0.077367     -0.610947
C      7.29314      0.08601      7.29314        -0.405558     -0.012302     -0.307365
C      6.23373      0.13007      6.23373         0.681307     -0.055197      0.262684
C      3.19606      0.08601      3.19606         0.657245     -0.016399      0.185331
C      4.25547      0.13007      4.25547        -0.371313     -0.075289     -0.531018
C      3.19606     10.40319      7.29314         0.367449      0.019464     -0.316180
C      4.25547     10.35913      6.23373        -0.727010      0.067455      0.366362
C      3.19606      7.29314     10.40319         0.294088     -0.210852     -0.006468
C      4.25547      6.23373     10.35913         0.046087      0.644126      0.091853
C      7.29314      7.29314      0.08601        -0.718613     -0.606903     -0.020918
C      6.23373      6.23373      0.13007         0.871426      1.130438     -0.071946
C      3.19606      3.19606      0.08601         0.816234      0.504175      0.008361
C      4.25547      4.25547      0.13007        -0.327769     -1.744629     -0.128014
C      7.29314      3.19606     10.40319        -0.329724      0.275256     -0.003670
C      6.23373      4.25547     10.35913         0.508887     -0.028059      0.229821
O     10.43466      3.58206      8.50569        -0.048250      0.183219      0.258465
O     10.54374     17.39634      8.50569         0.042073     -0.232899      0.484954
O     10.54374      3.58206     12.47271         0.083945     -0.064227     -0.035302
O     10.43466     17.39634     12.47271        -0.023203     -0.141118     -0.274938
O      8.50569     10.43466      3.58206         0.985201      0.185410      0.385178
O      8.50569     10.54374     17.39634         0.572978      0.084567     -0.228412
O     12.47271     10.54374      3.58206        -0.423044     -0.038729      0.186612
O     12.47271     10.43466     17.39634        -0.516341     -0.069540     -0.196518
O      3.58206      8.50569     10.43466         0.182389      0.431544     -0.029905
O     17.39634      8.50569     10.54374        -0.230199      0.714725      0.044365
O      3.58206     12.47271     10.54374         0.160773     -0.675542      0.025213
O     17.39634     12.47271     10.43466        -0.185656     -0.479499     -0.011805
O      3.58206     10.43466      8.50569         0.223986     -0.059844      0.401727
O     17.39634     10.54374      8.50569        -0.170957      0.037010      0.410827
O      3.58206     10.54374     12.47271         0.146807      0.021108     -0.305645
O     17.39634     10.43466     12.47271         0.072184     -0.050049     -0.081751
O     10.43466      8.50569      3.58206         0.000765      0.275893      0.181515
O     10.54374      8.50569     17.39634         0.070614      0.436024     -0.179445
O     10.54374     12.47271      3.58206        -0.222191     -0.969338      0.342758
O     10.43466     12.47271     17.39634        -0.083942     -0.449518     -0.244903
O      8.50569      3.58206     10.43466         0.494100      0.196407     -0.011815
O      8.50569     17.39634     10.54374         0.663251     -0.198586      0.022096
O     12.47271      3.58206     10.54374        -0.742168      0.278603      0.036571
O     12.47271     17.39634     10.43466        -0.437699     -0.202897     -0.044051
O     11.90042     11.90042     19.56718        -0.346295     -0.307456      0.259439
O     19.56718     19.56718     19.56718         0.325127      0.311755      0.282712
O     19.56718     11.90042     11.90042         0.276630     -0.276341     -0.140310
O     11.90042     19.56718     11.90042        -0.306128      0.286079     -0.233845
O      9.45224      1.03696      9.45224        -0.059036      0.072030     -0.047139
O      1.03696      9.45224      9.45224         0.035712     -0.073606     -0.071931
O      1.03696      1.03696      1.03696         0.059107      0.142503      0.101210
O      9.45224      9.45224      1.03696        -0.135866     -0.091883      0.101340
Zr     10.48920      2.52580     10.48920         0.154475     -0.167679     -0.163094
Zr     10.48920     18.45260     10.48920        -0.097973      0.181588     -0.045817
Zr     10.48920     10.48920      2.52580         0.333485     -0.309281     -0.198936
Zr     10.48920     10.48920     18.45260         0.007375     -0.086751      0.205593
Zr      2.52580     10.48920     10.48920        -0.067780      0.171992     -0.051475
Zr     18.45260     10.48920     10.48920         0.141060     -0.127658     -0.249305
Ir     12.04797     12.48491     10.46036        -0.007697      0.003040      0.001876
Ir     11.19242      7.41691     10.29098         0.020433     -0.007027     -0.017304
Ir      8.83700      7.36867     11.55998         0.010998     -0.007593     -0.014971
Ir      7.48023     11.65464      7.66023        -0.008256     -0.002371      0.000448
Ir     11.59343     12.08626      7.12228         0.000792     -0.002232     -0.004928
Ir     13.76299      8.98902      7.54758         0.010485     -0.000255     -0.007938
Ir     12.48506     13.95523      8.41764        -0.010109     -0.006729     -0.001797
Ir      9.72636     11.26154      5.55961         0.008401     -0.001450     -0.006972
Ir      9.08009     13.46352      7.07682        -0.003432     -0.012027      0.004446
Ir      9.27896      9.66527      7.52197        -0.004711     -0.000667     -0.018235
Ir     13.27813      7.03936     11.95494         0.001064      0.010108      0.005300
Ir     13.59425      7.03648      9.11640         0.022829      0.003846     -0.005033
Ir     11.03743      7.59953     12.83831         0.009037     -0.005559     -0.017886
Ir     13.60771     11.56311      8.75477         0.001236      0.005105     -0.001358
Ir     11.50410      9.64464      6.23318        -0.000579     -0.007685     -0.005976
Ir      7.15337      9.17045      8.93671        -0.002594     -0.011989     -0.009997
Ir     14.06138     11.43191     11.65809        -0.006290      0.005968     -0.002988
Ir     11.65531      9.85376      8.88695         0.000246     -0.014756     -0.012214
Ir      9.43443      9.51420     10.24317         0.007896     -0.006449     -0.001426
Ir     13.86691      9.40506     10.18345         0.015341      0.002510     -0.002716
Ir     13.81738      9.15947     12.90225         0.006433     -0.002510     -0.011374
Ir     11.69128      9.76329     11.56213         0.006116     -0.000732     -0.007966
Ir      9.91058     11.74459      8.97336         0.006243     -0.004243     -0.004081
Ir      9.07348      7.43389      8.81663         0.017704      0.002090     -0.018943
Ir     11.56976      7.56329      7.76542         0.034356     -0.018312     -0.022759
Ir      9.25230      9.48629     13.01654         0.007602     -0.010831     -0.008590
Ir      7.51721     13.91085      8.99499         0.000630     -0.010731     -0.001342
Ir     10.88461     14.11203     11.95077        -0.013418     -0.008878     -0.002899
Ir     10.11746     14.16097      9.52210        -0.003285     -0.013637     -0.002161
Ir      9.79397     11.69375     11.72800         0.005078     -0.011754      0.003380
Ir      7.58765     11.57942     10.21357         0.001567     -0.010389     -0.004957
Ir      8.35684     13.75214     11.58676        -0.005727     -0.007759     -0.002493
Ir      7.52624     11.57150     12.82949        -0.001687     -0.015574      0.000100
Ir      9.77042     11.61803     14.34469         0.005363     -0.010653      0.002216
Ir     13.48175     13.88227     12.19072        -0.005322      0.001925      0.000198
Ir     11.99356     12.05212     13.08435        -0.004241     -0.006665     -0.009549
Ir     11.57559      9.80388     14.20257         0.004404     -0.006823     -0.015220
Ir      7.14929      9.37317     11.49750         0.004198     -0.013803     -0.005242
