152
# total energy = -1061.44442842 eVH     10.35389      5.87395      7.64558        -0.198575      0.129092      1.017955
H     10.62451     15.10445      7.64558         0.444368     -0.121110      0.787982
H     10.62451      5.87395     13.33282        -0.088986      0.101675     -0.451295
H     10.35389     15.10445     13.33282         0.084890     -0.193697     -0.407037
H      7.64558     10.35389      5.87395         0.885339      0.202980      0.222287
H      7.64558     10.62451     15.10445         0.209963     -0.023088     -0.069840
H     13.33282     10.62451      5.87395        -0.596759     -0.046423      0.169499
H     13.33282     10.35389     15.10445        -0.323557     -0.054412     -0.076631
H      5.87395      7.64558     10.35389         0.127177      0.363286     -0.077788
H     15.10445      7.64558     10.62451        -0.137552      0.436590      0.174963
H      5.87395     13.33282     10.62451         0.107295     -0.646153      0.130650
H     15.10445     13.33282     10.35389        -0.228474     -0.432514      0.091282
H      5.87395     10.35389      7.64558         0.153502      0.288013      0.390503
H     15.10445     10.62451      7.64558        -0.141090     -0.355392      0.734399
H      5.87395     10.62451     13.33282         0.036324      0.149483     -0.712251
H     15.10445     10.35389     13.33282         0.073528     -0.240739     -0.727202
H     10.35389      7.64558      5.87395        -0.161556      0.447050      0.212774
H     10.62451      7.64558     15.10445         0.369302      0.609436     -0.120124
H     10.62451     13.33282      5.87395         0.062724     -0.557061      0.099369
H     10.35389     13.33282     15.10445         0.259245     -0.714528     -0.090200
H      7.64558      5.87395     10.35389         0.490309      0.146087     -0.156512
H      7.64558     15.10445     10.62451         0.399529     -0.144291      0.453792
H     13.33282      5.87395     10.62451        -0.392923      0.161431     -0.078026
H     13.33282     15.10445     10.35389        -0.585598     -0.292549      0.121589
H     12.45634     12.45634     19.01126         0.230440      0.265604     -0.249235
H     19.01126     19.01126     19.01126        -0.262279     -0.259135     -0.230473
H     19.01126     12.45634     12.45634        -0.234920      0.276311      0.234928
H     12.45634     19.01126     12.45634         0.275355     -0.210756      0.256249
C     10.35284      5.61067      6.59456         0.270077     -0.302226     -0.770223
C     10.62556     15.36773      6.59456        -0.191424      0.634302     -0.306894
C     10.62556      5.61067     14.38384         0.251071     -0.233263      0.487658
C     10.35284     15.36773     14.38384        -0.111639      0.281422      0.291413
C      6.59456     10.35284      5.61067        -0.832850     -0.091706     -0.242311
C      6.59456     10.62556     15.36773        -0.517585      0.047260      0.350891
C     14.38384     10.62556      5.61067         0.783641     -0.031143     -0.626831
C     14.38384     10.35284     15.36773         0.268421     -0.071122      0.347825
C      5.61067      6.59456     10.35284        -0.411724     -0.359545      0.079114
C     15.36773      6.59456     10.62556         0.323586     -0.465247     -0.061930
C      5.61067     14.38384     10.62556        -0.151993      0.478631     -0.422973
C     15.36773     14.38384     10.35284         0.405773      0.811727     -0.095426
C      5.61067     10.35284      6.59456        -0.321401     -0.175344     -0.105107
C     15.36773     10.62556      6.59456         0.207961      0.277925     -0.579498
C      5.61067     10.62556     14.38384        -0.347875     -0.040164      1.218217
C     15.36773     10.35284     14.38384         0.294875     -0.067655      0.986176
C     10.35284      6.59456      5.61067         0.082140     -0.238395     -0.501095
C     10.62556      6.59456     15.36773         0.013972     -0.776623      0.111497
C     10.62556     14.38384      5.61067        -0.382426      0.196864     -0.927326
C     10.35284     14.38384     15.36773        -0.259357      0.834092      0.268422
C      6.59456      5.61067     10.35284        -0.353998     -0.291602      0.260005
C      6.59456     15.36773     10.62556        -0.248402      0.512415     -0.073619
C     14.38384      5.61067     10.62556         0.478820     -0.385201      0.059319
C     14.38384     15.36773     10.35284         0.975619      0.275141     -0.067449
C     10.40319      3.19606      7.29314         0.007669      0.546588     -0.311720
C     10.35913      4.25547      6.23373        -0.013046     -0.521099      0.407292
C      0.08601      7.29314      7.29314        -0.015659     -0.839894     -0.566642
C      0.13007      6.23373      6.23373        -0.195443      0.877695      0.152666
C      0.08601      3.19606      3.19606        -0.009765      0.417192      0.390325
C      0.13007      4.25547      4.25547         0.067402     -0.237006     -0.563751
C     10.40319      7.29314      3.19606        -0.045329     -1.000651      0.794980
C     10.35913      6.23373      4.25547         0.018887      0.331954     -0.233609
C      7.29314     10.40319      3.19606        -1.336774     -0.084631      0.328691
C      6.23373     10.35913      4.25547         0.263506      0.017369     -0.704138
C      7.29314      0.08601      7.29314        -0.832679     -0.002478     -0.408050
C      6.23373      0.13007      6.23373         0.324612      0.052380      0.126598
C      3.19606      0.08601      3.19606         0.319049      0.000119      0.435649
C      4.25547      0.13007      4.25547        -0.285577     -0.032059     -0.175689
C      3.19606     10.40319      7.29314         0.492830     -0.040612     -1.030619
C      4.25547     10.35913      6.23373        -0.326204     -0.076762      0.097131
C      3.19606      7.29314     10.40319         1.071940     -0.444269      0.013822
C      4.25547      6.23373     10.35913        -0.193927      0.168873     -0.000670
C      7.29314      7.29314      0.08601        -0.517894     -0.280505     -0.007466
C      6.23373      6.23373      0.13007         0.160896      0.193690     -0.159859
C      3.19606      3.19606      0.08601         0.358843      0.888128     -0.008257
C      4.25547      4.25547      0.13007        -0.603077     -0.175578      0.037642
C      7.29314      3.19606     10.40319        -0.200724      0.491168      0.026727
C      6.23373      4.25547     10.35913        -0.010836     -0.366357      0.043395
O     10.43466      3.58206      8.50569        -0.023706      0.133144      0.388787
O     10.54374     17.39634      8.50569         0.040380      0.051124      0.369738
O     10.54374      3.58206     12.47271         0.040481      0.195054     -0.575140
O     10.43466     17.39634     12.47271         0.030361     -0.026224     -0.486297
O      8.50569     10.43466      3.58206         0.777040     -0.059800     -0.027341
O      8.50569     10.54374     17.39634         0.855934      0.021327     -0.164016
O     12.47271     10.54374      3.58206        -0.347497      0.035417      0.082862
O     12.47271     10.43466     17.39634        -0.378630     -0.036718      0.038985
O      3.58206      8.50569     10.43466        -0.100155      0.266966     -0.079562
O     17.39634      8.50569     10.54374        -0.102885      0.444406      0.044835
O      3.58206     12.47271     10.54374         0.151290     -0.826442     -0.021260
O     17.39634     12.47271     10.43466        -0.237323     -0.631493     -0.017637
O      3.58206     10.43466      8.50569         0.126921     -0.032111      0.793596
O     17.39634     10.54374      8.50569         0.002981      0.037029      0.336354
O      3.58206     10.54374     12.47271         0.065883      0.018498     -0.458869
O     17.39634     10.43466     12.47271         0.058794      0.012207     -0.239481
O     10.43466      8.50569      3.58206        -0.054281      0.543018     -0.069430
O     10.54374      8.50569     17.39634         0.028873      0.862816     -0.203420
O     10.54374     12.47271      3.58206         0.070413     -0.368529      0.071118
O     10.43466     12.47271     17.39634        -0.055545     -0.641053     -0.197913
O      8.50569      3.58206     10.43466         0.353137      0.084711     -0.051538
O      8.50569     17.39634     10.54374         0.569136     -0.170262     -0.020287
O     12.47271      3.58206     10.54374        -0.367876      0.048947      0.036765
O     12.47271     17.39634     10.43466        -0.824318     -0.143301      0.076855
O     11.90042     11.90042     19.56718        -0.244324     -0.283005      0.238159
O     19.56718     19.56718     19.56718         0.300297      0.292368      0.250197
O     19.56718     11.90042     11.90042         0.228636     -0.305379     -0.275240
O     11.90042     19.56718     11.90042        -0.275017      0.180843     -0.277071
O      9.45224      1.03696      9.45224        -0.107405      0.085869     -0.086275
O      1.03696      9.45224      9.45224         0.120507     -0.151472     -0.173524
O      1.03696      1.03696      1.03696         0.138513      0.209507     -0.002116
O      9.45224      9.45224      1.03696        -0.211443     -0.173303      0.027856
Zr     10.48920      2.52580     10.48920        -0.005344     -0.233213      0.146013
Zr     10.48920     18.45260     10.48920        -0.295892      0.312072     -0.151810
Zr     10.48920     10.48920      2.52580         0.366352      0.381693     -0.228869
Zr     10.48920     10.48920     18.45260         0.002692      0.023376      0.469152
Zr      2.52580     10.48920     10.48920        -0.560425      0.018718      0.338855
Zr     18.45260     10.48920     10.48920         0.270650     -0.140683      0.002465
Pd      9.22563     14.67228      9.22746         0.006561     -0.009187      0.000556
Pd      8.47014     13.20724     13.82567         0.003004     -0.000546      0.000398
Pd     12.14127     14.13562      8.66418        -0.003538     -0.021801      0.003171
Pd     12.24884     12.75459     10.89531        -0.017240      0.001263     -0.012744
Pd     11.76837      7.07293     11.87082         0.007173     -0.017197      0.011827
Pd     11.17864     15.30968     10.95858         0.000127      0.000719      0.007309
Pd      9.60533     13.16420     11.40778         0.003045     -0.002700     -0.005751
Pd     14.01953     12.40236      7.97340         0.000969      0.008637      0.005576
Pd     11.57081     11.78327      6.75040        -0.000845     -0.012740      0.003845
Pd      7.41337      8.53461      7.19329         0.006125     -0.001358      0.007316
Pd      8.59407     12.10936      6.92061         0.012938      0.002689     -0.010903
Pd      9.70010      9.91267      7.99757         0.001981      0.003708     -0.007944
Pd      8.47434     14.76089      6.58725         0.007603     -0.005621      0.004077
Pd     12.00738      9.06987      6.82982         0.006197      0.000525      0.013588
Pd      9.89647     10.07000      5.40266        -0.006084      0.012636     -0.002959
Pd      6.89430      9.21454     12.17320         0.007735      0.014100      0.002375
Pd     12.40232      6.53992      7.65800         0.001736      0.005835     -0.006259
Pd      5.56640     10.69209     10.11233        -0.019618     -0.006598     -0.002151
Pd      7.56664      6.65866     12.69316         0.007634      0.007247     -0.003702
Ir     11.27345      9.53321     12.83340        -0.006217     -0.002216      0.019466
Ir     13.06314      9.22798     11.07009         0.000889      0.009014     -0.001674
Ir      9.14613      8.41936     13.75431        -0.006377     -0.018316     -0.002282
Ir     10.27231     10.37072     15.06357        -0.000648     -0.011998      0.004517
Ir      7.09505     11.91196     11.85206         0.036751     -0.021622      0.015688
Ir     14.39995     11.18291     10.31334        -0.008539      0.000245     -0.003277
Ir     12.26083     10.62934      9.04927         0.009585     -0.002223      0.013176
Ir      8.92017     10.78694     12.89123        -0.032505      0.023379     -0.017094
Ir     10.01049     10.29689     10.61041        -0.009406     -0.001128     -0.004304
Ir     13.29357     11.18777     12.60325         0.001936     -0.010669      0.010335
Ir     11.09070     12.03770     13.32009         0.007627     -0.005586      0.002902
Ir      7.94593     11.74404      9.51499        -0.000434      0.015568      0.003891
Ir     11.26179      8.16318      9.42900         0.002726     -0.001576     -0.006634
Ir      6.98168     13.62473      8.39651         0.003353     -0.012197      0.024637
Ir      9.04247      7.29159      8.79184        -0.001493      0.000532     -0.007937
Ir      7.72791      9.21981      9.70828        -0.002855      0.015492     -0.009173
Ir     10.35066     12.34851      8.98034         0.003017      0.020344      0.009478
Ir      9.31666      7.90232     11.24613        -0.015394     -0.013339      0.023595
Ir     13.72982      8.48385      8.78059         0.004270      0.011576     -0.004343
