152
# total energy = -1092.67564866 eVH     10.35389      5.87395      7.64558         0.471765     -0.152419      1.339108
H     10.62451     15.10445      7.64558        -0.537789      0.328076      1.749753
H     10.62451      5.87395     13.33282         0.286165     -0.113201     -1.484520
H     10.35389     15.10445     13.33282        -0.462820      0.142646     -1.575639
H      7.64558     10.35389      5.87395         0.388574      0.001853     -0.029306
H      7.64558     10.62451     15.10445         0.416232     -0.028301      0.012331
H     13.33282     10.62451      5.87395        -0.593446     -0.020227      0.061311
H     13.33282     10.35389     15.10445        -0.437785      0.076731      0.015785
H      5.87395      7.64558     10.35389         0.048836      1.325447     -0.073241
H     15.10445      7.64558     10.62451        -0.007509      0.651463      0.018968
H      5.87395     13.33282     10.62451        -0.053596     -0.401153      0.018932
H     15.10445     13.33282     10.35389         0.328707     -1.712297      0.207889
H      5.87395     10.35389      7.64558        -0.244579     -0.407997      0.257866
H     15.10445     10.62451      7.64558         0.360834      0.480982     -0.024964
H      5.87395     10.62451     13.33282        -0.166891     -0.143205     -0.099311
H     15.10445     10.35389     13.33282         0.054215     -0.039907      0.092539
H     10.35389      7.64558      5.87395        -0.277026      0.334838      0.001247
H     10.62451      7.64558     15.10445         0.115678      0.609123      0.239144
H     10.62451     13.33282      5.87395        -0.114651     -0.770138     -0.156343
H     10.35389     13.33282     15.10445        -0.168542     -0.539436      0.276128
H      7.64558      5.87395     10.35389         0.393937     -0.020191     -0.095832
H      7.64558     15.10445     10.62451         0.339347      0.031411     -0.116709
H     13.33282      5.87395     10.62451        -0.296483     -0.050053      0.012349
H     13.33282     15.10445     10.35389        -0.443936      0.200997     -0.072312
H     12.45634     12.45634     19.01126         0.261902      0.246292     -0.243742
H     19.01126     19.01126     19.01126        -0.257685     -0.245838     -0.249863
H     19.01126     12.45634     12.45634        -0.257703      0.266121      0.234038
H     12.45634     19.01126     12.45634         0.268353     -0.258270      0.228889
C     10.35284      5.61067      6.59456        -0.346260     -0.200640     -1.631190
C     10.62556     15.36773      6.59456         0.471827      0.119018     -1.914117
C     10.62556      5.61067     14.38384        -0.428586     -0.059989      1.670569
C     10.35284     15.36773     14.38384         0.444922      0.035624      1.848466
C      6.59456     10.35284      5.61067        -0.671432     -0.048408     -0.344901
C      6.59456     10.62556     15.36773        -0.821319     -0.027654      0.084857
C     14.38384     10.62556      5.61067         0.883758      0.008897     -0.129378
C     14.38384     10.35284     15.36773         0.762215      0.019599      0.187631
C      5.61067      6.59456     10.35284        -0.076525     -1.080142      0.007994
C     15.36773      6.59456     10.62556         0.167582     -1.026153      0.004960
C      5.61067     14.38384     10.62556        -0.252241      0.789367      0.017582
C     15.36773     14.38384     10.35284         0.038913      1.568223     -0.030168
C      5.61067     10.35284      6.59456        -0.757051      0.056196     -1.894522
C     15.36773     10.62556      6.59456         0.764054     -0.086998     -2.013535
C      5.61067     10.62556     14.38384        -0.735088      0.052764      1.862651
C     15.36773     10.35284     14.38384         0.604211     -0.072580      1.558826
C     10.35284      6.59456      5.61067         0.092879     -1.449506     -0.750704
C     10.62556      6.59456     15.36773        -0.068930     -1.642813      0.891648
C     10.62556     14.38384      5.61067         0.028773      1.668923     -0.957932
C     10.35284     14.38384     15.36773        -0.055764      1.763810      0.926782
C      6.59456      5.61067     10.35284        -0.525964     -0.873362     -0.117509
C      6.59456     15.36773     10.62556        -1.280402      0.717809      0.088816
C     14.38384      5.61067     10.62556         1.202711     -0.774208      0.050644
C     14.38384     15.36773     10.35284         0.540893      1.132555      0.033420
C     10.40319      3.19606      7.29314         0.015749      0.516822     -0.456486
C     10.35913      4.25547      6.23373        -0.002486     -0.795485      0.451301
C      0.08601      7.29314      7.29314         0.020344     -0.497691     -0.514619
C      0.13007      6.23373      6.23373         0.006283      0.935542      0.507432
C      0.08601      3.19606      3.19606        -0.001434      0.600786      0.378522
C      0.13007      4.25547      4.25547        -0.034678     -0.882149     -0.451927
C     10.40319      7.29314      3.19606         0.037964     -0.551993      0.447883
C     10.35913      6.23373      4.25547         0.080445      0.678695     -0.476931
C      7.29314     10.40319      3.19606        -0.297585     -0.003199      0.561549
C      6.23373     10.35913      4.25547         0.187693     -0.057515     -0.232269
C      7.29314      0.08601      7.29314        -0.250727     -0.014050     -0.421469
C      6.23373      0.13007      6.23373         0.101051     -0.059639      0.407731
C      3.19606      0.08601      3.19606         0.340344      0.005154      0.476541
C      4.25547      0.13007      4.25547        -0.177653      0.056877     -0.309408
C      3.19606     10.40319      7.29314         0.275902      0.014654     -0.514734
C      4.25547     10.35913      6.23373        -0.188203      0.076756      0.494832
C      3.19606      7.29314     10.40319         0.212137     -0.384789     -0.004913
C      4.25547      6.23373     10.35913        -0.623091      0.257064      0.069551
C      7.29314      7.29314      0.08601        -0.564826     -0.312781      0.002989
C      6.23373      6.23373      0.13007         0.090178      0.278215     -0.038397
C      3.19606      3.19606      0.08601         0.512499      0.334005     -0.012279
C      4.25547      4.25547      0.13007        -0.052083     -0.147492     -0.027410
C      7.29314      3.19606     10.40319        -0.267671      0.478266     -0.014962
C      6.23373      4.25547     10.35913         0.799390     -0.343014      0.046748
O     10.43466      3.58206      8.50569         0.002988      0.219724      0.430070
O     10.54374     17.39634      8.50569        -0.021280     -0.219229      0.465259
O     10.54374      3.58206     12.47271         0.074397      0.164273     -0.350617
O     10.43466     17.39634     12.47271        -0.121329     -0.197860     -0.360508
O      8.50569     10.43466      3.58206         0.410208     -0.029633      0.085376
O      8.50569     10.54374     17.39634         0.431757      0.055985     -0.120047
O     12.47271     10.54374      3.58206        -0.460761     -0.006163      0.118461
O     12.47271     10.43466     17.39634        -0.441058     -0.050944     -0.123034
O      3.58206      8.50569     10.43466         0.179461      0.448370     -0.052284
O     17.39634      8.50569     10.54374        -0.077170      0.471958      0.030615
O      3.58206     12.47271     10.54374         0.064051     -0.468111      0.044622
O     17.39634     12.47271     10.43466        -0.210115     -0.522478     -0.008385
O      3.58206     10.43466      8.50569         0.187068     -0.015079      0.494957
O     17.39634     10.54374      8.50569        -0.148658     -0.009696      0.465121
O      3.58206     10.54374     12.47271         0.214566      0.073083     -0.466638
O     17.39634     10.43466     12.47271        -0.199504     -0.030793     -0.551449
O     10.43466      8.50569      3.58206         0.037202      0.553244      0.259333
O     10.54374      8.50569     17.39634         0.059397      0.545541     -0.237911
O     10.54374     12.47271      3.58206        -0.005329     -0.639938      0.276231
O     10.43466     12.47271     17.39634        -0.038692     -0.539385     -0.242873
O      8.50569      3.58206     10.43466         0.538947      0.145703     -0.034556
O      8.50569     17.39634     10.54374         0.610814     -0.142800      0.057291
O     12.47271      3.58206     10.54374        -0.603157      0.156687      0.000212
O     12.47271     17.39634     10.43466        -0.502930     -0.149399     -0.011843
O     11.90042     11.90042     19.56718        -0.303923     -0.289672      0.265388
O     19.56718     19.56718     19.56718         0.304424      0.280755      0.283265
O     19.56718     11.90042     11.90042         0.311402     -0.321681     -0.248428
O     11.90042     19.56718     11.90042        -0.319312      0.288306     -0.234239
O      9.45224      1.03696      9.45224        -0.046134      0.045248     -0.076514
O      1.03696      9.45224      9.45224         0.037350     -0.069806     -0.063728
O      1.03696      1.03696      1.03696         0.043049      0.041160      0.118617
O      9.45224      9.45224      1.03696        -0.038267     -0.078215      0.117463
Zr     10.48920      2.52580     10.48920        -0.121593     -0.100455      0.026497
Zr     10.48920     18.45260     10.48920         0.127531      0.173199     -0.107379
Zr     10.48920     10.48920      2.52580        -0.011327      0.088782     -0.296489
Zr     10.48920     10.48920     18.45260        -0.008973     -0.030721      0.165805
Zr      2.52580     10.48920     10.48920        -0.059285     -0.020035     -0.060748
Zr     18.45260     10.48920     10.48920         0.132511      0.084345     -0.101705
Pd     13.14603      8.24341      7.81403        -0.008788     -0.055059     -0.033451
Pd      9.31262     14.54816     11.78517         0.022900      0.044742      0.097009
Pd     12.29360     11.09540     10.48756         0.006806     -0.112634      0.004696
Pd     14.62245     10.48207     11.66373         0.070151     -0.110260     -0.028789
Pd     11.03973      9.26031      6.32853         0.059843     -0.045556     -0.047187
Pd      6.77860      8.20866      8.56785        -0.008053     -0.016190      0.270360
Ir     10.16315     11.90210     11.80252        -0.023503     -0.109974      0.081706
Ir     13.06390      8.48491     10.48607         0.060792      0.092939     -0.100249
Ir     12.27941     11.10137      7.81290        -0.040881     -0.045323      0.085355
Ir      9.44881     14.30782      9.13079        -0.046715     -0.018354     -0.021554
Ir     10.87783      9.28866     11.77833         0.046548      0.065887     -0.019963
Ir      8.71509      9.88120      7.85650         0.062485      0.081984     -0.004473
Ir     13.75666     12.75658      9.09385         0.070388     -0.150962     -0.107869
Ir     11.81659     13.64773      7.82834        -0.065707     -0.030543     -0.028968
Ir     14.34693     10.20084      9.16247        -0.030523     -0.001257     -0.135930
Ir      9.41969      7.35595     10.57242        -0.055650      0.050370     -0.071907
Ir      8.04018     12.52002      7.84104         0.017162      0.011050      0.056786
Ir      9.24133      7.46209      8.06486         0.104694     -0.034666     -0.065915
Ir     11.65903     13.67774     13.07457         0.127021     -0.005251      0.020120
Ir     11.63337      6.85174     11.89504         0.000508     -0.094103      0.027953
Ir     10.13392     11.76210      9.14757         0.047527      0.031481     -0.023872
Ir     13.07434      8.52825     13.12052        -0.020811      0.026276     -0.019241
Ir     10.92462      9.15762      9.08794        -0.086747      0.072715     -0.011106
Ir     11.55502     13.71988     10.41457         0.137401     -0.101626      0.078273
Ir     13.66262     13.01054     11.85584        -0.007435     -0.099677     -0.002269
Ir     12.34649     11.18290     13.15000         0.019995     -0.063605     -0.033118
Ir     10.08811     11.64330      6.57126        -0.017953     -0.005092     -0.091597
Ir     11.55536      6.66399      9.35095        -0.129561      0.003078     -0.040327
Ir      7.28192      8.16144     11.84632         0.007241     -0.042149     -0.087957
Ir      8.04849     12.59850     10.46336         0.015483      0.034384      0.004173
Ir     10.98054      9.32699     14.32365        -0.026903     -0.062526      0.069772
Ir      7.96548     12.41406     13.04352         0.147932     -0.013369     -0.039936
Ir      6.61725     10.85880      9.21291        -0.108221     -0.004774     -0.063957
Ir      8.70932      9.89723     13.12740        -0.042294      0.141191      0.139296
Ir      6.58473     10.68214     11.62959        -0.111252     -0.004783      0.018205
Ir      9.18807      7.33283     13.17733         0.130558      0.078128     -0.097368
Ir     10.08935     11.64996     14.39046        -0.058869      0.111133     -0.013618
Ir      8.72570      9.91267     10.48100         0.089280     -0.088609     -0.082951
