152
# total energy = -1060.01465008 eVH     10.35389      5.87395      7.64558        -0.264620     -0.001905      1.149545
H     10.62451     15.10445      7.64558         0.048636     -0.089841      0.926780
H     10.62451      5.87395     13.33282        -0.241937      0.087782     -0.790133
H     10.35389     15.10445     13.33282         0.100675     -0.297940     -0.900301
H      7.64558     10.35389      5.87395         0.934313     -0.114051      0.179092
H      7.64558     10.62451     15.10445         0.334836     -0.043665     -0.077506
H     13.33282     10.62451      5.87395        -0.876731      0.219097      0.203587
H     13.33282     10.35389     15.10445        -0.278051     -0.010970     -0.069433
H      5.87395      7.64558     10.35389         0.089396      0.417189     -0.012747
H     15.10445      7.64558     10.62451         0.013352      0.510063     -0.032345
H      5.87395     13.33282     10.62451        -0.018204     -0.956990      0.075073
H     15.10445     13.33282     10.35389        -0.078451     -0.319453      0.003942
H      5.87395     10.35389      7.64558         0.268248      0.120997      0.416635
H     15.10445     10.62451      7.64558        -0.125369     -0.176602      0.651503
H      5.87395     10.62451     13.33282        -0.088623      0.454610     -0.621157
H     15.10445     10.35389     13.33282         0.266016     -0.658287     -0.812257
H     10.35389      7.64558      5.87395        -0.049487      0.476974      0.328122
H     10.62451      7.64558     15.10445         0.212495      0.740964     -0.048845
H     10.62451     13.33282      5.87395         0.124575     -0.564639      0.204049
H     10.35389     13.33282     15.10445         0.041428     -0.284563     -0.136640
H      7.64558      5.87395     10.35389         0.336827      0.092695      0.016221
H      7.64558     15.10445     10.62451         0.369950     -0.114327      0.153043
H     13.33282      5.87395     10.62451        -0.317478      0.127707     -0.037301
H     13.33282     15.10445     10.35389        -0.653064     -0.133814      0.144671
H     12.45634     12.45634     19.01126         0.254542      0.270862     -0.229792
H     19.01126     19.01126     19.01126        -0.245687     -0.268458     -0.245580
H     19.01126     12.45634     12.45634        -0.251825      0.269538      0.234604
H     12.45634     19.01126     12.45634         0.290875     -0.235993      0.233586
C     10.35284      5.61067      6.59456         0.392805     -0.428675     -1.465607
C     10.62556     15.36773      6.59456        -0.159368      0.573601     -0.628150
C     10.62556      5.61067     14.38384         0.386217     -0.343877      0.848507
C     10.35284     15.36773     14.38384        -0.237019      0.219075      1.111114
C      6.59456     10.35284      5.61067        -1.376734      0.017852     -0.246125
C      6.59456     10.62556     15.36773        -0.650243      0.058474      0.386146
C     14.38384     10.62556      5.61067         1.314784     -0.178158     -0.623403
C     14.38384     10.35284     15.36773         0.377005     -0.121555      0.356526
C      5.61067      6.59456     10.35284        -0.295290     -0.628654     -0.013070
C     15.36773      6.59456     10.62556         0.421743     -1.000272      0.030765
C      5.61067     14.38384     10.62556        -0.126661      1.159511     -0.179471
C     15.36773     14.38384     10.35284         0.452587      0.643549     -0.025361
C      5.61067     10.35284      6.59456        -0.366340     -0.099303     -0.702665
C     15.36773     10.62556      6.59456         0.422816      0.123927     -0.750879
C      5.61067     10.62556     14.38384        -0.381462     -0.172581      1.220657
C     15.36773     10.35284     14.38384         0.283816      0.196092      1.516358
C     10.35284      6.59456      5.61067        -0.049397     -0.704525     -0.631132
C     10.62556      6.59456     15.36773        -0.085649     -0.815861      0.346843
C     10.62556     14.38384      5.61067        -0.457436      0.415878     -0.699680
C     10.35284     14.38384     15.36773        -0.151587      0.589812      0.410734
C      6.59456      5.61067     10.35284        -0.505468     -0.341807      0.037793
C      6.59456     15.36773     10.62556        -0.395661      0.465756      0.049672
C     14.38384      5.61067     10.62556         0.447047     -0.386276      0.004579
C     14.38384     15.36773     10.35284         1.120383      0.502083     -0.071430
C     10.40319      3.19606      7.29314         0.002188      0.637593     -0.335234
C     10.35913      4.25547      6.23373         0.003907     -0.448163      0.288780
C      0.08601      7.29314      7.29314        -0.013264     -0.355673     -0.497047
C      0.13007      6.23373      6.23373        -0.078962      0.826121      0.058702
C      0.08601      3.19606      3.19606        -0.001563      0.671280      0.270709
C      0.13007      4.25547      4.25547         0.023236     -0.268343     -0.528611
C     10.40319      7.29314      3.19606        -0.067798     -1.169633      0.553949
C     10.35913      6.23373      4.25547        -0.036856      0.373942     -0.197805
C      7.29314     10.40319      3.19606        -1.089226     -0.058561      0.184166
C      6.23373     10.35913      4.25547         0.365483      0.080280     -0.541355
C      7.29314      0.08601      7.29314        -0.408107      0.034040     -0.565763
C      6.23373      0.13007      6.23373         0.176571      0.133485      0.131814
C      3.19606      0.08601      3.19606         0.703061      0.025076      0.161845
C      4.25547      0.13007      4.25547        -0.169427     -0.053976     -0.370013
C      3.19606     10.40319      7.29314         0.383668     -0.024462     -0.863486
C      4.25547     10.35913      6.23373        -0.163414     -0.085604      0.094103
C      3.19606      7.29314     10.40319         0.600629     -0.387413      0.001455
C      4.25547      6.23373     10.35913        -0.116589      0.183659     -0.001143
C      7.29314      7.29314      0.08601        -0.403241     -0.328221     -0.015268
C      6.23373      6.23373      0.13007         0.199165      0.193474     -0.056748
C      3.19606      3.19606      0.08601         0.289983      0.480288     -0.023345
C      4.25547      4.25547      0.13007        -0.395434     -0.225880     -0.029481
C      7.29314      3.19606     10.40319        -0.282189      0.587939     -0.013746
C      6.23373      4.25547     10.35913         0.003909     -0.123262      0.021685
O     10.43466      3.58206      8.50569        -0.030171      0.103583      0.329110
O     10.54374     17.39634      8.50569         0.065883     -0.134202      0.591501
O     10.54374      3.58206     12.47271         0.026964      0.108535     -0.391181
O     10.43466     17.39634     12.47271         0.088157     -0.041987     -0.362778
O      8.50569     10.43466      3.58206         0.711062     -0.057794      0.009040
O      8.50569     10.54374     17.39634         0.447996      0.054699     -0.069442
O     12.47271     10.54374      3.58206        -0.652240      0.114755      0.204318
O     12.47271     10.43466     17.39634        -0.286907     -0.004943      0.011299
O      3.58206      8.50569     10.43466         0.044773      0.463194     -0.066459
O     17.39634      8.50569     10.54374        -0.062422      0.463152      0.054687
O      3.58206     12.47271     10.54374         0.114424     -0.585056      0.002130
O     17.39634     12.47271     10.43466        -0.166792     -0.735765     -0.061762
O      3.58206     10.43466      8.50569         0.217195     -0.063457      0.776064
O     17.39634     10.54374      8.50569        -0.118930      0.077130      0.601353
O      3.58206     10.54374     12.47271        -0.000648     -0.000699     -0.269094
O     17.39634     10.43466     12.47271         0.043388     -0.013839     -0.209565
O     10.43466      8.50569      3.58206        -0.101521      0.574207     -0.124637
O     10.54374      8.50569     17.39634         0.064081      0.503678     -0.100878
O     10.54374     12.47271      3.58206         0.105161     -0.621105      0.133317
O     10.43466     12.47271     17.39634        -0.061208     -0.627601     -0.239193
O      8.50569      3.58206     10.43466         0.400568      0.029805     -0.031417
O      8.50569     17.39634     10.54374         0.626976     -0.152361      0.050394
O     12.47271      3.58206     10.54374        -0.507280      0.126462      0.037592
O     12.47271     17.39634     10.43466        -0.622381     -0.139004      0.036747
O     11.90042     11.90042     19.56718        -0.274304     -0.308528      0.237058
O     19.56718     19.56718     19.56718         0.301346      0.318946      0.299507
O     19.56718     11.90042     11.90042         0.285016     -0.325068     -0.230433
O     11.90042     19.56718     11.90042        -0.317928      0.229951     -0.201495
O      9.45224      1.03696      9.45224        -0.085181      0.082066     -0.066930
O      1.03696      9.45224      9.45224         0.098807     -0.116709     -0.044686
O      1.03696      1.03696      1.03696         0.083809      0.056860      0.098634
O      9.45224      9.45224      1.03696        -0.061750     -0.132724      0.129781
Zr     10.48920      2.52580     10.48920         0.031193     -0.087012      0.064156
Zr     10.48920     18.45260     10.48920        -0.169178      0.263814     -0.344908
Zr     10.48920     10.48920      2.52580         0.124087      0.359871     -0.356017
Zr     10.48920     10.48920     18.45260        -0.080603     -0.190824      0.170907
Zr      2.52580     10.48920     10.48920        -0.254281      0.124399      0.219669
Zr     18.45260     10.48920     10.48920         0.232094     -0.108176      0.008075
Pd      9.38852     14.21870      9.38946         0.003393      0.040141     -0.025477
Pd      8.63151     13.72214     12.97066        -0.001988     -0.009120      0.003618
Pd     12.01938     14.41257      8.75260         0.010090      0.005463     -0.008851
Pd     12.78466     12.79551     10.60670        -0.010545      0.029210      0.019180
Pd     12.16187      7.09836     12.59717        -0.017836      0.014734      0.030592
Pd     11.24315     14.79999     11.53253        -0.037328      0.032564     -0.030625
Pd     10.11752     12.45913     11.15176        -0.028449      0.025000     -0.043817
Pd     13.47798     12.13406      7.97177         0.006475     -0.003750      0.008717
Pd     11.47930     11.55271      6.11588         0.003095      0.005672     -0.008402
Pd      7.84253      8.59785      7.54936         0.017083     -0.035413     -0.007101
Pd      8.74799     11.72304      6.89652        -0.007785      0.007725     -0.010757
Pd     10.31932      9.45344      8.12512        -0.003049      0.015800      0.022772
Pd      8.50851     14.42198      6.87417         0.004890      0.012411     -0.028811
Pd     12.38474      9.02656      6.56807        -0.018269      0.007136      0.017333
Pd      9.74873      9.60907      5.54191        -0.006250     -0.002799      0.018248
Pd      6.89196      9.46134     12.19742        -0.018802      0.007462     -0.004922
Pd     12.20742      6.67361      7.84539         0.000878      0.013847      0.023549
Pd      5.96452     10.48721      9.74645        -0.011001     -0.027264     -0.020568
Pd      7.57362      7.09381     13.20278         0.015300      0.047179      0.047015
Ir     11.83668      9.69005     13.05932        -0.038164      0.018188      0.003604
Ir     13.59106      8.97963     11.42681        -0.012408      0.003611      0.012137
Ir      9.42717      8.81763     13.80563         0.008537      0.024008      0.062534
Ir     10.58080     10.91598     14.84949        -0.014725     -0.006733      0.030538
Ir      7.31656     12.04894     11.37278        -0.031911     -0.017988     -0.010185
Ir     14.70494     10.81385     10.05793        -0.008706      0.015523      0.034591
Ir     12.20454     10.45490      9.64844        -0.004363      0.028633      0.017500
Ir      8.77997     11.05922     13.04303         0.024844     -0.009041     -0.016660
Ir     10.15900      9.82924     11.25144        -0.021894      0.027349     -0.030210
Ir     13.81014     11.35292     12.37795        -0.055751      0.005548      0.031748
Ir     11.71723     12.29109     13.11841        -0.075252     -0.000211     -0.007404
Ir      8.54941     11.05890      9.40178        -0.015308      0.003385     -0.014904
Ir     11.59279      7.95967     10.04820         0.011335      0.019202      0.015371
Ir      7.22723     12.96612      8.68947         0.018453      0.034313      0.010248
Ir      9.50459      7.00384      9.06741         0.005866     -0.001159      0.016373
Ir      8.08180      8.73674     10.11142        -0.024354      0.011838     -0.004595
Ir     10.76881     12.07852      8.54932        -0.008028      0.017516     -0.016023
Ir      9.58598      7.38545     11.62461        -0.007092      0.034587      0.036317
Ir     13.70055      8.66441      8.78876        -0.013492      0.038148      0.015563
