152
# total energy = -1023.27134634 eVH     10.35389      5.87395      7.64558         0.498326      0.084112      0.719780
H     10.62451     15.10445      7.64558        -0.091602     -0.066271      0.799531
H     10.62451      5.87395     13.33282         0.146869      0.129699     -0.636208
H     10.35389     15.10445     13.33282        -0.176482     -0.122888     -0.541020
H      7.64558     10.35389      5.87395         0.308676     -0.021647      0.188993
H      7.64558     10.62451     15.10445         0.660733     -0.217562     -0.128774
H     13.33282     10.62451      5.87395        -0.777169     -0.158851      0.203729
H     13.33282     10.35389     15.10445        -0.445874     -0.103204     -0.053158
H      5.87395      7.64558     10.35389         0.206570      1.062985     -0.254401
H     15.10445      7.64558     10.62451        -0.175752      0.467119     -0.117997
H      5.87395     13.33282     10.62451         0.161974     -0.419607     -0.061009
H     15.10445     13.33282     10.35389        -0.130633     -0.920141      0.020820
H      5.87395     10.35389      7.64558         0.132088      0.098576      0.457562
H     15.10445     10.62451      7.64558         0.097531     -0.021242      1.066110
H      5.87395     10.62451     13.33282         0.186745     -0.027681     -0.379144
H     15.10445     10.35389     13.33282        -0.124125     -0.060169     -0.547934
H     10.35389      7.64558      5.87395         0.123740      0.861618      0.187198
H     10.62451      7.64558     15.10445        -0.007711      0.507366     -0.163319
H     10.62451     13.33282      5.87395        -0.010795     -0.572393      0.214656
H     10.35389     13.33282     15.10445        -0.301379     -0.891472     -0.134121
H      7.64558      5.87395     10.35389         0.445575      0.096786     -0.038291
H      7.64558     15.10445     10.62451         0.828347     -0.279138      0.027622
H     13.33282      5.87395     10.62451        -0.448548      0.186936     -0.065928
H     13.33282     15.10445     10.35389        -0.656555     -0.098820      0.169504
H     12.45634     12.45634     19.01126         0.252254      0.264548     -0.230065
H     19.01126     19.01126     19.01126        -0.252467     -0.231028     -0.261339
H     19.01126     12.45634     12.45634        -0.234542      0.272387      0.240818
H     12.45634     19.01126     12.45634         0.224932     -0.263346      0.249693
C     10.35284      5.61067      6.59456        -0.200936     -0.358466     -0.028284
C     10.62556     15.36773      6.59456         0.065975      0.369320     -1.203606
C     10.62556      5.61067     14.38384        -0.059736     -0.252044      0.812395
C     10.35284     15.36773     14.38384         0.041029      0.863836      0.402757
C      6.59456     10.35284      5.61067        -0.363521     -0.037723     -0.178401
C      6.59456     10.62556     15.36773        -0.857457      0.207843      0.373942
C     14.38384     10.62556      5.61067         0.480631      0.302824     -0.508470
C     14.38384     10.35284     15.36773         0.774831     -0.109675      0.440412
C      5.61067      6.59456     10.35284        -0.321067     -0.631582      0.434477
C     15.36773      6.59456     10.62556         0.163183     -0.508554      0.081040
C      5.61067     14.38384     10.62556        -0.148525      0.388742     -0.024080
C     15.36773     14.38384     10.35284         0.381107     -0.044718     -0.093590
C      5.61067     10.35284      6.59456        -0.262495     -0.022796     -0.784883
C     15.36773     10.62556      6.59456         0.611346     -0.284535     -1.345112
C      5.61067     10.62556     14.38384        -0.342350     -0.004440      0.406746
C     15.36773     10.35284     14.38384         0.493697     -0.162393      1.136363
C     10.35284      6.59456      5.61067        -0.172629     -0.469121     -0.452305
C     10.62556      6.59456     15.36773         0.054394     -0.609522      0.272433
C     10.62556     14.38384      5.61067         0.092405      0.985768     -0.494459
C     10.35284     14.38384     15.36773         0.261835      0.584722      0.525271
C      6.59456      5.61067     10.35284        -0.134382     -0.827253      0.076349
C      6.59456     15.36773     10.62556        -1.507784      0.413152      0.121007
C     14.38384      5.61067     10.62556         0.641375     -0.272331     -0.015848
C     14.38384     15.36773     10.35284        -0.428227      0.682004     -0.317720
C     10.40319      3.19606      7.29314         0.008120      0.828838     -0.295732
C     10.35913      4.25547      6.23373        -0.046545     -0.478770      0.493206
C      0.08601      7.29314      7.29314        -0.008157     -0.260908     -0.519634
C      0.13007      6.23373      6.23373         0.026413      0.140107      0.200106
C      0.08601      3.19606      3.19606        -0.012547      0.596585      0.196154
C      0.13007      4.25547      4.25547        -0.092468     -0.175123     -0.189733
C     10.40319      7.29314      3.19606        -0.007816     -0.642514      0.553630
C     10.35913      6.23373      4.25547        -0.040050      0.268387     -0.603320
C      7.29314     10.40319      3.19606        -0.298428      0.028311      0.943320
C      6.23373     10.35913      4.25547         0.167157      0.033293     -0.126065
C      7.29314      0.08601      7.29314        -0.320173     -0.035670     -0.300993
C      6.23373      0.13007      6.23373         0.334948     -0.052620      0.327094
C      3.19606      0.08601      3.19606         0.523977     -0.030702      0.684676
C      4.25547      0.13007      4.25547        -0.094391     -0.029875     -0.366561
C      3.19606     10.40319      7.29314         0.705804      0.001832     -0.420601
C      4.25547     10.35913      6.23373        -0.156681      0.030124      0.083956
C      3.19606      7.29314     10.40319         0.671959     -1.295712     -0.013117
C      4.25547      6.23373     10.35913        -0.653650      0.901950      0.074097
C      7.29314      7.29314      0.08601        -0.692887     -0.184713     -0.015478
C      6.23373      6.23373      0.13007         0.213642      0.192719      0.020199
C      3.19606      3.19606      0.08601         0.270128      0.303454     -0.019817
C      4.25547      4.25547      0.13007        -0.067694     -0.042135     -0.003592
C      7.29314      3.19606     10.40319        -0.366041      0.998258      0.016152
C      6.23373      4.25547     10.35913         1.075471     -0.016655      0.009537
O     10.43466      3.58206      8.50569        -0.043420      0.049657      0.382555
O     10.54374     17.39634      8.50569        -0.042264     -0.172319      0.590005
O     10.54374      3.58206     12.47271         0.049426      0.074836     -0.326147
O     10.43466     17.39634     12.47271        -0.011369     -0.136844     -0.624096
O      8.50569     10.43466      3.58206         0.328248     -0.033194     -0.033567
O      8.50569     10.54374     17.39634         0.479583      0.044146     -0.146732
O     12.47271     10.54374      3.58206        -0.480709      0.007769      0.089899
O     12.47271     10.43466     17.39634        -0.786914      0.000542     -0.185699
O      3.58206      8.50569     10.43466         0.111453      1.050541      0.014552
O     17.39634      8.50569     10.54374        -0.026331      0.308558      0.072663
O      3.58206     12.47271     10.54374         0.074036     -0.473518      0.049500
O     17.39634     12.47271     10.43466        -0.175678     -0.889607      0.056467
O      3.58206     10.43466      8.50569        -0.060758     -0.068112      0.339333
O     17.39634     10.54374      8.50569        -0.128169      0.040998      0.459392
O      3.58206     10.54374     12.47271         0.092280     -0.020725     -0.637160
O     17.39634     10.43466     12.47271        -0.188820      0.056775     -0.789716
O     10.43466      8.50569      3.58206         0.029739      0.643238      0.161875
O     10.54374      8.50569     17.39634         0.062816      0.439701     -0.079870
O     10.54374     12.47271      3.58206        -0.006528     -0.696851      0.221232
O     10.43466     12.47271     17.39634         0.031698     -0.848610     -0.239446
O      8.50569      3.58206     10.43466         0.446623      0.024327     -0.040237
O      8.50569     17.39634     10.54374         0.701263     -0.262803     -0.064138
O     12.47271      3.58206     10.54374        -0.460038      0.149359      0.041434
O     12.47271     17.39634     10.43466        -0.553409     -0.018560     -0.005141
O     11.90042     11.90042     19.56718        -0.292904     -0.314195      0.255236
O     19.56718     19.56718     19.56718         0.284131      0.261430      0.309853
O     19.56718     11.90042     11.90042         0.259417     -0.323123     -0.246114
O     11.90042     19.56718     11.90042        -0.272279      0.277074     -0.267977
O      9.45224      1.03696      9.45224        -0.081392      0.042116     -0.072060
O      1.03696      9.45224      9.45224         0.015850     -0.170095     -0.097707
O      1.03696      1.03696      1.03696         0.004948      0.068006      0.174825
O      9.45224      9.45224      1.03696        -0.061808     -0.104252      0.105233
Zr     10.48920      2.52580     10.48920         0.000020     -0.097165     -0.043274
Zr     10.48920     18.45260     10.48920         0.135454      0.364127      0.010071
Zr     10.48920     10.48920      2.52580         0.012178     -0.015757     -0.367229
Zr     10.48920     10.48920     18.45260        -0.156396     -0.050895      0.374699
Zr      2.52580     10.48920     10.48920        -0.349061      0.244010     -0.106994
Zr     18.45260     10.48920     10.48920         0.275325     -0.009285     -0.283124
Pd      8.96010     10.10694     13.31441        -0.002932     -0.012207      0.023702
Pd     10.67390      9.69310     10.83274        -0.077685     -0.050753     -0.052900
Pd     13.70931      8.37993     12.58455        -0.002762      0.051119     -0.007557
Pd     10.98840     10.89813     14.96527        -0.028892     -0.024258     -0.002492
Pd     12.90800     11.01648     12.96663         0.019604      0.022719      0.047865
Pd     15.10649     11.08049     11.31463        -0.015490     -0.044047      0.007488
Pd      6.58510      7.73089     12.33212        -0.013939      0.007713      0.027517
Pd      9.30995      7.27803      9.85943        -0.001739      0.009714     -0.013767
Pd      9.21404      7.46223     12.62469         0.019428      0.000048     -0.027351
Pd     11.62187      7.15039     11.41926         0.000245      0.018858     -0.032458
Pd     11.70787      7.97698      8.90491         0.006912     -0.004908     -0.058922
Pd      7.38515     11.76970     11.76360        -0.011283      0.010197     -0.003034
Pd      9.21905     14.77532      9.44929         0.020274     -0.002938      0.023832
Pd      8.40005     12.54524     14.24494        -0.022046     -0.024331     -0.017591
Pd     14.09485     14.24514      8.31532         0.017983      0.002675     -0.000819
Pd     11.51075     13.64022      8.73040        -0.012638      0.003266      0.017779
Pd     14.16638     11.68500      8.89602        -0.000339     -0.006647      0.014791
Pd      8.73328     14.02596     12.05853        -0.004775     -0.009007      0.038693
Pd     12.26441     13.48974     14.13390        -0.022943      0.025723     -0.003215
Pd     11.35376     14.41631     11.44488         0.009176     -0.006025      0.009347
Pd     14.08404     13.58596     12.26872        -0.023437     -0.017017     -0.002715
Pd     12.42369     12.15738     10.72798         0.039711     -0.044132     -0.004570
Pd     12.75178     12.51022      6.69210         0.003651      0.003454     -0.016779
Pd     13.93996      8.99633      7.99785        -0.008575     -0.002237     -0.015480
Pd      6.93802      8.49122      8.75131         0.006527     -0.008428     -0.013990
Pd      5.62691     10.10546     10.68263        -0.011765      0.000199     -0.047884
Pd      9.39701      9.44411      8.10400         0.017574     -0.008924     -0.042726
Pd      8.55869      7.00783      7.23590        -0.011407     -0.013818     -0.016532
Pd      9.76663     12.13091     10.34403        -0.065674     -0.012753     -0.102237
Pd     11.64495     10.80081      8.50407        -0.025139     -0.044277     -0.068844
Pd     11.59108      9.09524      6.46773         0.016552     -0.012187     -0.020837
Pd     10.08351     11.35284      6.36258        -0.006019      0.021136      0.017780
Ir     11.27615      9.00605     13.20039        -0.046687      0.076135     -0.016634
Ir     13.21041      9.61259     10.39140         0.024817     -0.052436     -0.064853
Ir     10.55505     12.19928     12.71662        -0.033067     -0.025418      0.148950
Ir      7.61775     10.99711      9.23501         0.042694      0.002008     -0.019260
Ir      8.81204     12.65465      8.08083         0.087299     -0.099360     -0.022424
Ir      8.17911      9.29759     11.00091         0.057029     -0.008349     -0.031500
