31
# total energy = -195.18741153 eVH      2.21599      8.01499      7.50000         0.004585      0.003841      0.000000
H      8.91341      3.11441      7.50000        -0.004585     -0.003841     -0.000000
H      3.11441      2.21599      7.50000        -0.003841      0.004585     -0.000000
H      8.01499      8.91341      7.50000         0.003841     -0.004585     -0.000000
H      1.48517      6.35826      7.50000         0.000801     -0.000643     -0.000000
H      9.64423      4.77114      7.50000        -0.000801      0.000643      0.000000
H      4.77114      1.48517      7.50000         0.000643      0.000801     -0.000000
H      6.35826      9.64423      7.50000        -0.000643     -0.000801      0.000000
H      4.18024      9.01606      7.50000         0.002684     -0.010112     -0.000000
H      6.94916      2.11334      7.50000        -0.002684      0.010112     -0.000000
H      2.11334      4.18024      7.50000         0.010112      0.002684     -0.000000
H      9.01606      6.94916      7.50000        -0.010112     -0.002684     -0.000000
C      8.51189      0.92947      7.50000        -0.000029     -0.003089     -0.000000
C      2.61751     10.19993      7.50000         0.000029      0.003089      0.000000
C     10.19993      8.51189      7.50000         0.003089     -0.000029     -0.000000
C      0.92947      2.61751      7.50000        -0.003089      0.000029      0.000000
C      9.19919     10.76229      7.50000         0.006391     -0.001355      0.000000
C      1.93021      0.36711      7.50000        -0.006391      0.001355     -0.000000
C      0.36711      9.19919      7.50000         0.001355      0.006391     -0.000000
C     10.76229      1.93021      7.50000        -0.001355     -0.006391      0.000000
C      9.37299      2.10646      7.50000        -0.006078     -0.007882     -0.000000
C      1.75641      9.02294      7.50000         0.006078      0.007882     -0.000000
C      9.02294      9.37299      7.50000         0.007882     -0.006078     -0.000000
C      2.10646      1.75641      7.50000        -0.007882      0.006078     -0.000000
N      3.96641     10.01964      7.50000         0.003692      0.004314      0.000000
N      7.16299      1.10976      7.50000        -0.003692     -0.004314     -0.000000
N      1.10976      3.96641      7.50000        -0.004314      0.003692      0.000000
N     10.01964      7.16299      7.50000         0.004314     -0.003692      0.000000
Ir      0.00000     -0.00000      7.50000         0.000000     -0.000000      0.000000
Ir      5.56470     -0.00000      7.50000         0.000000     -0.000000      0.000000
Ir      0.00000      5.56470      7.50000         0.000000     -0.000000      0.000000
