8
# total energy = -53.47731808 eVC      1.14292     13.23215     -0.00000        -0.000000     -0.038780      0.000000
C      1.14292      4.05405      0.00000         0.000000      0.038780     -0.000000
O      1.14292      5.24302     -0.00000         0.000000      0.058506     -0.000000
O      1.14292     12.04318      0.00000         0.000000     -0.058506      0.000000
O      0.00000     14.00715      0.00000         0.000000     -0.047321      0.000000
O      0.00000      3.27905     -0.00000        -0.000000      0.047321     -0.000000
Ir      0.00000      8.64310      0.00000         0.000000     -0.000000      0.000000
Ir      0.00000      0.00000      0.00000         0.000000     -0.000000      0.000000
