152
# total energy = -1024.44864269 eVH     10.35389      5.87395      7.64558         0.479687      0.026162      0.743359
H     10.62451     15.10445      7.64558         0.066879     -0.201482      0.626073
H     10.62451      5.87395     13.33282         0.102152      0.149048     -0.585190
H     10.35389     15.10445     13.33282        -0.508473     -0.024178     -0.754768
H      7.64558     10.35389      5.87395         0.349393      0.027300      0.161957
H      7.64558     10.62451     15.10445         0.955911     -0.237148      0.054413
H     13.33282     10.62451      5.87395        -0.802348     -0.136064      0.153851
H     13.33282     10.35389     15.10445        -0.903499     -0.447448      0.211526
H      5.87395      7.64558     10.35389         0.159432      0.722011     -0.308947
H     15.10445      7.64558     10.62451        -0.141487      0.381572     -0.015397
H      5.87395     13.33282     10.62451         0.155637     -0.504253     -0.099961
H     15.10445     13.33282     10.35389        -0.091391     -1.183766      0.114103
H      5.87395     10.35389      7.64558         0.137556      0.170124      0.508549
H     15.10445     10.62451      7.64558         0.004731      0.106112      1.021247
H      5.87395     10.62451     13.33282         0.070364     -0.038512     -0.466937
H     15.10445     10.35389     13.33282        -0.189688     -0.139561     -0.420270
H     10.35389      7.64558      5.87395         0.090902      1.002408      0.223058
H     10.62451      7.64558     15.10445         0.001174      0.270249     -0.156561
H     10.62451     13.33282      5.87395        -0.085816     -0.388774      0.318615
H     10.35389     13.33282     15.10445        -0.434784     -0.569761      0.004082
H      7.64558      5.87395     10.35389         0.543716      0.084519     -0.116660
H      7.64558     15.10445     10.62451         0.955096     -0.202886     -0.208516
H     13.33282      5.87395     10.62451        -0.589297      0.088547     -0.066612
H     13.33282     15.10445     10.35389        -0.579761     -0.064232      0.260210
H     12.45634     12.45634     19.01126         0.237707      0.276651     -0.237166
H     19.01126     19.01126     19.01126        -0.248453     -0.249498     -0.242475
H     19.01126     12.45634     12.45634        -0.267371      0.264509      0.219532
H     12.45634     19.01126     12.45634         0.236756     -0.267410      0.240395
C     10.35284      5.61067      6.59456        -0.225307     -0.679698      0.093278
C     10.62556     15.36773      6.59456        -0.050915      0.377895     -0.849613
C     10.62556      5.61067     14.38384        -0.006416     -0.057057      0.719165
C     10.35284     15.36773     14.38384         0.203973      0.695714      0.166767
C      6.59456     10.35284      5.61067        -0.361035     -0.015307     -0.307126
C      6.59456     10.62556     15.36773        -1.103068      0.259865      0.281433
C     14.38384     10.62556      5.61067         0.440603      0.376150     -0.676193
C     14.38384     10.35284     15.36773         1.102848      0.043944      0.216284
C      5.61067      6.59456     10.35284        -0.435889     -0.365788      0.357099
C     15.36773      6.59456     10.62556         0.188709     -0.496945      0.010435
C      5.61067     14.38384     10.62556        -0.205520      0.545435     -0.009141
C     15.36773     14.38384     10.35284         0.319656      0.039475     -0.111422
C      5.61067     10.35284      6.59456        -0.334181     -0.087667     -0.991083
C     15.36773     10.62556      6.59456         0.898615     -0.342780     -0.950112
C      5.61067     10.62556     14.38384        -0.436027      0.030071      0.298297
C     15.36773     10.35284     14.38384         0.647038     -0.097958      1.047568
C     10.35284      6.59456      5.61067        -0.251688     -0.564919     -0.942003
C     10.62556      6.59456     15.36773         0.061728     -0.257039      0.048242
C     10.62556     14.38384      5.61067         0.059063      1.199666     -0.416017
C     10.35284     14.38384     15.36773         0.275153      0.179186      0.724576
C      6.59456      5.61067     10.35284        -0.186494     -0.735666      0.170405
C      6.59456     15.36773     10.62556        -1.254552      0.243646      0.182601
C     14.38384      5.61067     10.62556         1.081911     -0.299974      0.040398
C     14.38384     15.36773     10.35284        -0.462399      0.788312     -0.404160
C     10.40319      3.19606      7.29314        -0.035926      0.914919     -0.426996
C     10.35913      4.25547      6.23373         0.056305     -0.532647      0.536651
C      0.08601      7.29314      7.29314        -0.021201     -0.395084     -0.347885
C      0.13007      6.23373      6.23373        -0.024435      0.014536      0.098162
C      0.08601      3.19606      3.19606         0.011167      1.272769      0.195480
C      0.13007      4.25547      4.25547        -0.047038     -0.225652     -0.201328
C     10.40319      7.29314      3.19606        -0.014136     -1.057325      0.373703
C     10.35913      6.23373      4.25547         0.042461      0.482528     -0.671855
C      7.29314     10.40319      3.19606        -0.316157      0.029003      0.727778
C      6.23373     10.35913      4.25547         0.139960      0.060789     -0.101492
C      7.29314      0.08601      7.29314        -0.660036     -0.017739     -0.267807
C      6.23373      0.13007      6.23373         0.376946     -0.080695      0.559808
C      3.19606      0.08601      3.19606         1.010226     -0.005236      0.257532
C      4.25547      0.13007      4.25547        -0.169428     -0.036155     -0.528802
C      3.19606     10.40319      7.29314         0.360874     -0.008863     -0.922548
C      4.25547     10.35913      6.23373        -0.273595      0.090504      0.233916
C      3.19606      7.29314     10.40319         0.523568     -1.360579     -0.037107
C      4.25547      6.23373     10.35913        -0.560552      0.729824      0.105682
C      7.29314      7.29314      0.08601        -0.389822     -0.238494      0.003097
C      6.23373      6.23373      0.13007         0.157599      0.152674     -0.001885
C      3.19606      3.19606      0.08601         0.266545      0.243050     -0.016799
C      4.25547      4.25547      0.13007        -0.124265     -0.052408      0.005188
C      7.29314      3.19606     10.40319        -0.398085      0.622998      0.006706
C      6.23373      4.25547     10.35913         1.069508     -0.143163      0.053657
O     10.43466      3.58206      8.50569        -0.023919      0.034965      0.439787
O     10.54374     17.39634      8.50569        -0.006475     -0.115873      0.467696
O     10.54374      3.58206     12.47271         0.039977     -0.106760     -0.129588
O     10.43466     17.39634     12.47271        -0.058600     -0.043178     -0.476794
O      8.50569     10.43466      3.58206         0.288545     -0.029011     -0.039819
O      8.50569     10.54374     17.39634         0.716572      0.028269     -0.204597
O     12.47271     10.54374      3.58206        -0.786719     -0.038589      0.148386
O     12.47271     10.43466     17.39634        -0.289867     -0.030143      0.031957
O      3.58206      8.50569     10.43466         0.161425      1.117775     -0.030008
O     17.39634      8.50569     10.54374        -0.100819      0.441545      0.059271
O      3.58206     12.47271     10.54374         0.067723     -0.397216      0.035493
O     17.39634     12.47271     10.43466        -0.157759     -0.672889     -0.009983
O      3.58206     10.43466      8.50569         0.069553     -0.068222      0.794771
O     17.39634     10.54374      8.50569        -0.063081      0.044023      0.331429
O      3.58206     10.54374     12.47271        -0.012926      0.037165     -0.240245
O     17.39634     10.43466     12.47271        -0.256108     -0.003877     -0.719963
O     10.43466      8.50569      3.58206         0.119149      0.837132      0.192220
O     10.54374      8.50569     17.39634         0.032509      0.597886     -0.142032
O     10.54374     12.47271      3.58206         0.007012     -1.010378      0.176385
O     10.43466     12.47271     17.39634        -0.043325     -0.953402     -0.213957
O      8.50569      3.58206     10.43466         0.566674      0.130154     -0.015647
O      8.50569     17.39634     10.54374         0.503243     -0.193919     -0.010319
O     12.47271      3.58206     10.54374        -0.480372      0.162392      0.059384
O     12.47271     17.39634     10.43466        -0.405357      0.033775     -0.007798
O     11.90042     11.90042     19.56718        -0.269880     -0.325297      0.257685
O     19.56718     19.56718     19.56718         0.277475      0.293188      0.284151
O     19.56718     11.90042     11.90042         0.301794     -0.300616     -0.202718
O     11.90042     19.56718     11.90042        -0.263548      0.285162     -0.248803
O      9.45224      1.03696      9.45224        -0.080239      0.049231     -0.058985
O      1.03696      9.45224      9.45224         0.043168     -0.152710     -0.113096
O      1.03696      1.03696      1.03696         0.025660      0.119965      0.195908
O      9.45224      9.45224      1.03696        -0.069169     -0.086799      0.117766
Zr     10.48920      2.52580     10.48920        -0.052411     -0.125905     -0.168484
Zr     10.48920     18.45260     10.48920         0.007719      0.213652     -0.025889
Zr     10.48920     10.48920      2.52580        -0.170219     -0.194177     -0.511777
Zr     10.48920     10.48920     18.45260         0.007670     -0.026645      0.433930
Zr      2.52580     10.48920     10.48920        -0.370506      0.307521      0.167148
Zr     18.45260     10.48920     10.48920         0.203230      0.066510     -0.202958
Pd      8.28335      9.66177     13.26601         0.001549      0.005442      0.009328
Pd     10.47714      9.42833     10.19699         0.017586      0.004923     -0.000510
Pd     12.97674      8.78680     12.47579        -0.005596      0.002873      0.005836
Pd     10.30031     10.83150     15.06639        -0.008829     -0.007603     -0.006265
Pd     12.76835     11.37122     13.60832        -0.008999     -0.014578     -0.000173
Pd     14.84994     10.56438     11.35904         0.006347     -0.005917      0.012270
Pd      6.90299      7.45313     12.30229        -0.014491      0.002782      0.001665
Pd      9.20197      7.17936      9.45639         0.010672     -0.001466      0.023608
Pd      9.59373      7.53866     12.21913         0.001120     -0.008960     -0.007658
Pd     11.75239      7.06764     10.79295        -0.002865     -0.000093      0.006637
Pd     11.61316      7.82221      8.25329        -0.005508     -0.014531      0.025646
Pd      7.18111     11.66310     11.52280        -0.012154     -0.004645      0.004348
Pd      9.27631     14.31182      9.24259        -0.001265     -0.002935      0.007606
Pd      8.11582     12.30267     14.01482        -0.006286     -0.021796     -0.002984
Pd     14.23070     14.16417      8.35819        -0.017812     -0.005619     -0.009508
Pd     11.73009     13.27512      8.79885         0.006575     -0.002987     -0.003257
Pd     14.10300     11.59076      9.02144        -0.013016     -0.001497     -0.011722
Pd      8.68435     13.98192     11.98958        -0.002192      0.011442     -0.008114
Pd     12.22106     14.01575     13.92253        -0.001812      0.016501      0.019165
Pd     11.40335     14.13683     11.28387        -0.009987      0.001336      0.001881
Pd     13.99968     13.25012     12.09490         0.004107     -0.009873     -0.010582
Pd     12.26470     11.48414     10.92453         0.002298     -0.004849      0.001232
Pd     13.01151     12.58617      6.60440        -0.006599     -0.000741      0.002994
Pd     13.95329      8.83574      7.58205         0.011342      0.003062     -0.010316
Pd      6.96325      8.43892      8.38243        -0.011682      0.003405      0.011064
Pd      5.55474     10.01145     10.07201        -0.000022     -0.005856     -0.007581
Pd      9.38536      9.44664      7.43950        -0.004696     -0.006531      0.004138
Pd      8.46939      6.95639      6.85657         0.007045     -0.001578      0.015476
Pd      9.67465     11.94475     10.51040        -0.018450     -0.012045     -0.016819
Pd     11.78093     10.60224      8.06813         0.001624      0.006451      0.002902
Pd     11.79391      8.93414      5.85114        -0.004716     -0.004286     -0.004998
Pd     10.62111     11.33405      5.73764        -0.013109      0.005667     -0.006672
Ir     10.72520      9.85788     12.70212        -0.017408      0.021252      0.010386
Ir     13.13448      9.22599      9.95303        -0.022198      0.009047     -0.006236
Ir     10.46585     12.31392     12.88858         0.024964     -0.039029      0.002955
Ir      7.76306     10.94481      9.06410         0.019450      0.003602      0.011746
Ir      9.56166     12.04982      7.95323        -0.020492     -0.005326      0.023511
Ir      8.00277      9.15234     10.74244        -0.013299      0.007900     -0.024949
