152
# total energy = -1023.88484586 eVH     10.35389      5.87395      7.64558         0.512127      0.076388      0.779478
H     10.62451     15.10445      7.64558        -0.013112     -0.153627      0.591146
H     10.62451      5.87395     13.33282         0.137926      0.161958     -0.646625
H     10.35389     15.10445     13.33282        -0.319281     -0.059562     -0.741175
H      7.64558     10.35389      5.87395         0.313438     -0.015173      0.187081
H      7.64558     10.62451     15.10445         1.041287     -0.390830      0.000655
H     13.33282     10.62451      5.87395        -0.752565      0.005452      0.178375
H     13.33282     10.35389     15.10445        -0.751174     -0.276818      0.082098
H      5.87395      7.64558     10.35389         0.206072      0.771213     -0.082406
H     15.10445      7.64558     10.62451        -0.147222      0.398811     -0.046716
H      5.87395     13.33282     10.62451         0.179906     -0.487392     -0.076324
H     15.10445     13.33282     10.35389        -0.119414     -0.994868      0.081028
H      5.87395     10.35389      7.64558         0.148354      0.102734      0.443007
H     15.10445     10.62451      7.64558         0.079495      0.108035      1.133281
H      5.87395     10.62451     13.33282         0.107063     -0.035431     -0.372619
H     15.10445     10.35389     13.33282        -0.099562     -0.102412     -0.610921
H     10.35389      7.64558      5.87395        -0.009107      0.861601      0.227424
H     10.62451      7.64558     15.10445         0.015407      0.295207     -0.174913
H     10.62451     13.33282      5.87395        -0.051549     -0.560269      0.237959
H     10.35389     13.33282     15.10445        -0.585895     -0.795636     -0.047930
H      7.64558      5.87395     10.35389         0.464569      0.115556      0.046666
H      7.64558     15.10445     10.62451         0.780361     -0.287165      0.070082
H     13.33282      5.87395     10.62451        -0.480528      0.170315     -0.063876
H     13.33282     15.10445     10.35389        -0.627656     -0.067560      0.187983
H     12.45634     12.45634     19.01126         0.242285      0.280599     -0.227993
H     19.01126     19.01126     19.01126        -0.253747     -0.238105     -0.252657
H     19.01126     12.45634     12.45634        -0.248907      0.273122      0.226559
H     12.45634     19.01126     12.45634         0.228499     -0.262821      0.243395
C     10.35284      5.61067      6.59456        -0.207008     -0.546815      0.039768
C     10.62556     15.36773      6.59456         0.026032      0.420178     -0.805860
C     10.62556      5.61067     14.38384        -0.057587     -0.111631      0.761718
C     10.35284     15.36773     14.38384         0.072421      0.739518      0.304892
C      6.59456     10.35284      5.61067        -0.382283     -0.029439     -0.236262
C      6.59456     10.62556     15.36773        -1.097949      0.442845      0.409020
C     14.38384     10.62556      5.61067         0.383808      0.278447     -0.593241
C     14.38384     10.35284     15.36773         0.929650     -0.065059      0.394084
C      5.61067      6.59456     10.35284        -0.363758     -0.509335      0.320961
C     15.36773      6.59456     10.62556         0.172254     -0.509634      0.032717
C      5.61067     14.38384     10.62556        -0.114318      0.483775     -0.002263
C     15.36773     14.38384     10.35284         0.306861     -0.132907     -0.173699
C      5.61067     10.35284      6.59456        -0.273840     -0.037686     -0.800560
C     15.36773     10.62556      6.59456         0.689112     -0.325937     -1.242560
C      5.61067     10.62556     14.38384        -0.562034     -0.023132      0.161459
C     15.36773     10.35284     14.38384         0.649868     -0.118953      1.230534
C     10.35284      6.59456      5.61067        -0.274086     -0.502235     -0.747530
C     10.62556      6.59456     15.36773         0.044746     -0.286446      0.134757
C     10.62556     14.38384      5.61067         0.148407      1.086869     -0.417836
C     10.35284     14.38384     15.36773         0.136917      0.286738      0.713426
C      6.59456      5.61067     10.35284        -0.306913     -0.800252      0.058097
C      6.59456     15.36773     10.62556        -1.304274      0.345127      0.047209
C     14.38384      5.61067     10.62556         0.696805     -0.240193      0.017161
C     14.38384     15.36773     10.35284        -0.504618      0.666897     -0.337517
C     10.40319      3.19606      7.29314         0.008852      0.887924     -0.384469
C     10.35913      4.25547      6.23373         0.037704     -0.494294      0.580524
C      0.08601      7.29314      7.29314        -0.004901     -0.446361     -0.406868
C      0.13007      6.23373      6.23373        -0.008018      0.037523      0.105052
C      0.08601      3.19606      3.19606        -0.017684      0.868136      0.181480
C      0.13007      4.25547      4.25547        -0.069633     -0.189918     -0.245984
C     10.40319      7.29314      3.19606        -0.000128     -0.913674      0.482403
C     10.35913      6.23373      4.25547         0.029632      0.455790     -0.633629
C      7.29314     10.40319      3.19606        -0.413082      0.038767      0.852874
C      6.23373     10.35913      4.25547         0.237380      0.076407     -0.110359
C      7.29314      0.08601      7.29314        -0.431920     -0.025140     -0.281883
C      6.23373      0.13007      6.23373         0.455288     -0.064093      0.491572
C      3.19606      0.08601      3.19606         0.724822     -0.017882      0.414349
C      4.25547      0.13007      4.25547        -0.102714     -0.054598     -0.437253
C      3.19606     10.40319      7.29314         0.727555     -0.005722     -0.672653
C      4.25547     10.35913      6.23373        -0.228349      0.092442      0.199783
C      3.19606      7.29314     10.40319         0.503752     -1.279488     -0.032509
C      4.25547      6.23373     10.35913        -0.458337      0.832718      0.048715
C      7.29314      7.29314      0.08601        -0.562212     -0.239518     -0.015005
C      6.23373      6.23373      0.13007         0.172184      0.139169     -0.015232
C      3.19606      3.19606      0.08601         0.240709      0.314231     -0.024165
C      4.25547      4.25547      0.13007        -0.066868     -0.046047      0.016274
C      7.29314      3.19606     10.40319        -0.352811      0.703548      0.013478
C      6.23373      4.25547     10.35913         1.087152      0.066647      0.007837
O     10.43466      3.58206      8.50569        -0.037585      0.035692      0.422541
O     10.54374     17.39634      8.50569        -0.022217     -0.107596      0.484040
O     10.54374      3.58206     12.47271         0.050426     -0.001568     -0.227408
O     10.43466     17.39634     12.47271        -0.046334     -0.078487     -0.545223
O      8.50569     10.43466      3.58206         0.380760     -0.017673     -0.018047
O      8.50569     10.54374     17.39634         0.536697      0.029143     -0.154010
O     12.47271     10.54374      3.58206        -0.644909     -0.023977      0.159033
O     12.47271     10.43466     17.39634        -0.668597     -0.024613     -0.091471
O      3.58206      8.50569     10.43466         0.171895      1.105145      0.001919
O     17.39634      8.50569     10.54374        -0.038807      0.367301      0.072876
O      3.58206     12.47271     10.54374         0.081433     -0.494489      0.031483
O     17.39634     12.47271     10.43466        -0.166837     -0.707340      0.012028
O      3.58206     10.43466      8.50569        -0.014663     -0.066914      0.534731
O     17.39634     10.54374      8.50569        -0.116677      0.042431      0.410195
O      3.58206     10.54374     12.47271         0.044100      0.008974     -0.426564
O     17.39634     10.43466     12.47271        -0.225639      0.028274     -0.735917
O     10.43466      8.50569      3.58206         0.081559      0.809999      0.194859
O     10.54374      8.50569     17.39634         0.072264      0.603413     -0.124032
O     10.54374     12.47271      3.58206        -0.033712     -0.867122      0.239071
O     10.43466     12.47271     17.39634         0.012500     -0.952320     -0.218721
O      8.50569      3.58206     10.43466         0.514386      0.094005     -0.021889
O      8.50569     17.39634     10.54374         0.636227     -0.243852     -0.034131
O     12.47271      3.58206     10.54374        -0.446641      0.133260      0.051704
O     12.47271     17.39634     10.43466        -0.420328      0.026565     -0.017358
O     11.90042     11.90042     19.56718        -0.265302     -0.332870      0.249330
O     19.56718     19.56718     19.56718         0.287156      0.271008      0.301356
O     19.56718     11.90042     11.90042         0.276169     -0.322230     -0.213670
O     11.90042     19.56718     11.90042        -0.272928      0.287613     -0.262701
O      9.45224      1.03696      9.45224        -0.083493      0.050270     -0.055174
O      1.03696      9.45224      9.45224         0.061942     -0.160467     -0.091664
O      1.03696      1.03696      1.03696         0.019077      0.065391      0.186982
O      9.45224      9.45224      1.03696        -0.055525     -0.085324      0.133112
Zr     10.48920      2.52580     10.48920        -0.028345     -0.077710     -0.120035
Zr     10.48920     18.45260     10.48920         0.092894      0.268930      0.005692
Zr     10.48920     10.48920      2.52580         0.005916     -0.091759     -0.497247
Zr     10.48920     10.48920     18.45260        -0.218524      0.017069      0.446266
Zr      2.52580     10.48920     10.48920        -0.404329      0.271092      0.106451
Zr     18.45260     10.48920     10.48920         0.209452      0.065901     -0.295735
Pd      8.65017      9.89316     13.38905        -0.084291      0.043507     -0.030982
Pd     10.52672      9.55071     10.35017         0.059307     -0.052212     -0.164925
Pd     13.51893      8.74273     12.54680        -0.149049     -0.065869     -0.031962
Pd     10.80705     10.68069     15.14887        -0.114824     -0.001150     -0.169894
Pd     12.97392     11.30386     13.34462         0.186369     -0.037106      0.127479
Pd     14.97458     10.71724     11.31044         0.070021      0.233310     -0.114595
Pd      6.62324      7.90310     12.48007         0.152644      0.005236      0.126972
Pd      9.28941      7.20660      9.67982         0.018682      0.079542     -0.010260
Pd      9.32676      7.46852     12.42701         0.162789     -0.015149      0.011379
Pd     11.71490      7.32336     11.20298        -0.112573     -0.206244     -0.079816
Pd     11.72235      7.78427      8.51366        -0.079058      0.130652      0.080621
Pd      7.30892     11.73782     11.65290        -0.086493     -0.063015     -0.061149
Pd      9.28231     14.56842      9.56111        -0.004316     -0.020604     -0.105979
Pd      8.04868     12.40887     14.26372         0.187244     -0.057859     -0.097422
Pd     14.16461     14.20767      8.31892        -0.022272     -0.021199      0.050634
Pd     11.63836     13.49522      8.86431        -0.034645     -0.116937      0.089476
Pd     14.12765     11.63073      8.92798        -0.141324      0.020612     -0.002113
Pd      8.76522     13.91847     12.24710        -0.044819     -0.005225     -0.117883
Pd     12.15627     13.73526     14.11597         0.099045      0.010580     -0.143286
Pd     11.38177     14.12237     11.50014         0.040299     -0.086131     -0.108552
Pd     13.98286     13.50855     12.18823         0.217439      0.037702     -0.072415
Pd     12.36063     11.72812     10.84269         0.093273     -0.102241      0.165423
Pd     12.76075     12.59522      6.66828         0.117664      0.077148     -0.098081
Pd     13.98351      8.91276      7.68156        -0.129519     -0.028436      0.062184
Pd      7.00370      8.42536      8.62791         0.001799      0.002664     -0.079120
Pd      5.64621     10.08302     10.30199         0.001738     -0.017603      0.017343
Pd      9.41725      9.32012      7.71062         0.032101      0.071190      0.060249
Pd      8.46634      6.87406      7.08576         0.090358     -0.032373     -0.062117
Pd      9.74237     12.01278     10.52818        -0.146135     -0.013684     -0.184766
Pd     11.67993     10.69759      8.21012        -0.129321      0.040575      0.057775
Pd     11.71721      8.99143      6.09209        -0.027326      0.118204      0.097236
Pd     10.24421     11.27616      6.03070        -0.089327      0.115726     -0.074284
Ir     11.08866      9.51898     12.80259        -0.068674     -0.165074      0.096588
Ir     13.16347      9.36979     10.05425         0.033855     -0.032717      0.052186
Ir     10.43999     11.97823     12.92349         0.074110      0.244392      0.185446
Ir      7.80547     10.91836      9.09886         0.048450      0.075921      0.076331
Ir      9.27658     12.44137      8.05707         0.185050     -0.230370      0.089534
Ir      8.10683      9.26049     10.94867        -0.045387     -0.001555     -0.304795
