26
# total energy = -205.58094266 eVC      0.70383      1.25063      7.50000        -0.009640     -0.018830      0.000000
C     10.79684      6.56576      7.50000        -0.118009      0.022715      0.000000
C      0.73782     11.43036      7.50000        -0.042041      0.078062     -0.000000
C     11.53032      5.33480      7.50000         0.009640      0.018830      0.000000
C      1.43731      0.01966      7.50000         0.118009     -0.022715     -0.000000
C     11.49633     -4.84494      7.50000         0.042041     -0.078062      0.000000
C     10.79882     -3.65543      7.50000        -0.509462      0.920204      0.000000
C     10.85764      4.12821      7.50000        -0.308350     -0.580831      0.000000
C      2.82904      0.04209      7.50000        -0.126184      0.013879     -0.000000
C      1.43533     10.24085      7.50000         0.509462     -0.920204      0.000000
C      1.37651      2.45721      7.50000         0.308350      0.580831      0.000000
C      9.40511      6.54333      7.50000         0.126184     -0.013879     -0.000000
N      7.75823      0.25819      7.50000         0.487896      0.030728      0.000000
N      4.47592      6.32723      7.50000        -0.487896     -0.030728     -0.000000
N      4.01072      0.08470      7.50000         0.046936     -0.003378      0.000000
N     10.22685     -2.60887      7.50000         0.452226     -0.771097     -0.000000
N     10.29389      3.08121      7.50000         0.292918      0.501696     -0.000000
N      8.22343      6.50072      7.50000        -0.046936      0.003378     -0.000000
N      2.00730      9.19429      7.50000        -0.452226      0.771097      0.000000
N      1.94026      3.50421      7.50000        -0.292918     -0.501696      0.000000
Ir      2.98688      7.53261      7.50000         0.130246     -0.098562      0.000000
Ir      2.97804      5.13055      7.50000         0.131916      0.109291      0.000000
Ir      6.28881      6.40791      7.50000         0.354367      0.021758     -0.000000
Ir      9.24727     -0.94719      7.50000        -0.130246      0.098562      0.000000
Ir      9.25611      1.45487      7.50000        -0.131916     -0.109291     -0.000000
Ir      5.94534      0.17752      7.50000        -0.354367     -0.021758      0.000000
