152
# total energy = -1022.63411752 eVH     10.35389      5.87395      7.64558         0.448578      0.006574      0.970723
H     10.62451     15.10445      7.64558         0.008737     -0.015725      0.686127
H     10.62451      5.87395     13.33282         0.133923      0.112080     -0.615342
H     10.35389     15.10445     13.33282        -0.271598     -0.069011     -0.551980
H      7.64558     10.35389      5.87395         0.357161     -0.058607      0.195701
H      7.64558     10.62451     15.10445         0.620569     -0.160636     -0.132094
H     13.33282     10.62451      5.87395        -0.980088     -0.444792      0.084919
H     13.33282     10.35389     15.10445        -0.481636     -0.079179     -0.050255
H      5.87395      7.64558     10.35389         0.080100      1.208988     -0.090321
H     15.10445      7.64558     10.62451        -0.170375      0.397222     -0.077511
H      5.87395     13.33282     10.62451         0.144003     -0.390443     -0.068115
H     15.10445     13.33282     10.35389        -0.083674     -0.975117     -0.287627
H      5.87395     10.35389      7.64558         0.121536      0.002535      0.437173
H     15.10445     10.62451      7.64558         0.137736     -0.177675      0.755695
H      5.87395     10.62451     13.33282         0.270555     -0.041658     -0.411852
H     15.10445     10.35389     13.33282        -0.156040      0.037748     -0.632409
H     10.35389      7.64558      5.87395         0.163138      0.860558      0.092643
H     10.62451      7.64558     15.10445         0.016352      0.658859     -0.126131
H     10.62451     13.33282      5.87395         0.227063     -0.570758      0.182366
H     10.35389     13.33282     15.10445        -0.218056     -0.900441     -0.115459
H      7.64558      5.87395     10.35389         0.516717      0.034836     -0.163665
H      7.64558     15.10445     10.62451         0.918994     -0.186496      0.300570
H     13.33282      5.87395     10.62451        -0.427180      0.191378     -0.067939
H     13.33282     15.10445     10.35389        -0.993490     -0.066171      0.256080
H     12.45634     12.45634     19.01126         0.270521      0.258403     -0.221355
H     19.01126     19.01126     19.01126        -0.248798     -0.235289     -0.261691
H     19.01126     12.45634     12.45634        -0.244311      0.271626      0.235882
H     12.45634     19.01126     12.45634         0.207230     -0.284875      0.255821
C     10.35284      5.61067      6.59456        -0.090683     -0.443272     -0.592847
C     10.62556     15.36773      6.59456         0.014982      0.334893     -0.991393
C     10.62556      5.61067     14.38384        -0.010091     -0.270871      0.734625
C     10.35284     15.36773     14.38384         0.215277      0.729630      0.071636
C      6.59456     10.35284      5.61067        -0.508428     -0.042985     -0.226198
C      6.59456     10.62556     15.36773        -0.817796      0.141652      0.381800
C     14.38384     10.62556      5.61067         0.931515      0.287521     -0.333520
C     14.38384     10.35284     15.36773         0.753703     -0.122839      0.428051
C      5.61067      6.59456     10.35284        -0.404198     -0.892120      0.212650
C     15.36773      6.59456     10.62556         0.208037     -0.483133      0.040484
C      5.61067     14.38384     10.62556        -0.258521      0.381721     -0.013588
C     15.36773     14.38384     10.35284         0.339850      0.264102      0.255257
C      5.61067     10.35284      6.59456        -0.320492      0.005875     -0.852976
C     15.36773     10.62556      6.59456         0.535397     -0.144473     -1.218410
C      5.61067     10.62556     14.38384        -0.498288      0.007232      1.029205
C     15.36773     10.35284     14.38384         0.544636     -0.187938      1.288902
C     10.35284      6.59456      5.61067        -0.023292     -0.996066     -0.690480
C     10.62556      6.59456     15.36773         0.051085     -0.813430      0.354741
C     10.62556     14.38384      5.61067        -0.013226      1.362838     -0.731229
C     10.35284     14.38384     15.36773         0.067189      0.615430      0.625460
C      6.59456      5.61067     10.35284        -0.196427     -0.905279      0.130262
C      6.59456     15.36773     10.62556        -1.747259      0.491422      0.036775
C     14.38384      5.61067     10.62556         0.563374     -0.224411     -0.001752
C     14.38384     15.36773     10.35284         0.365711      0.500527     -0.217416
C     10.40319      3.19606      7.29314         0.018728      0.955597     -0.237749
C     10.35913      4.25547      6.23373        -0.044784     -0.310456      0.688723
C      0.08601      7.29314      7.29314        -0.010630     -0.223701     -0.460307
C      0.13007      6.23373      6.23373        -0.009863      0.135450      0.184726
C      0.08601      3.19606      3.19606        -0.021558      0.698178      0.158471
C      0.13007      4.25547      4.25547        -0.099271     -0.191731     -0.167503
C     10.40319      7.29314      3.19606        -0.001537     -0.662590      0.496620
C     10.35913      6.23373      4.25547         0.003041      0.550190     -0.322630
C      7.29314     10.40319      3.19606        -0.394904      0.019020      0.858234
C      6.23373     10.35913      4.25547         0.230087      0.002297     -0.164312
C      7.29314      0.08601      7.29314        -0.304672     -0.050605     -0.245623
C      6.23373      0.13007      6.23373         0.269204     -0.075478      0.262841
C      3.19606      0.08601      3.19606         0.360252     -0.056110      1.325957
C      4.25547      0.13007      4.25547        -0.158447     -0.015614     -0.437358
C      3.19606     10.40319      7.29314         0.733293      0.017008     -0.264465
C      4.25547     10.35913      6.23373        -0.127489      0.037430      0.121510
C      3.19606      7.29314     10.40319         0.551979     -1.255799      0.038131
C      4.25547      6.23373     10.35913        -0.746175      0.751237      0.031015
C      7.29314      7.29314      0.08601        -0.646335     -0.177634     -0.024909
C      6.23373      6.23373      0.13007         0.171207      0.265783     -0.015254
C      3.19606      3.19606      0.08601         0.250559      0.259206     -0.020342
C      4.25547      4.25547      0.13007        -0.053791     -0.034427      0.016807
C      7.29314      3.19606     10.40319        -0.360326      0.724112      0.026679
C      6.23373      4.25547     10.35913         0.772945     -0.196375      0.029467
O     10.43466      3.58206      8.50569        -0.054170      0.022687      0.295465
O     10.54374     17.39634      8.50569        -0.019659     -0.191554      0.609730
O     10.54374      3.58206     12.47271         0.063828      0.049541     -0.298867
O     10.43466     17.39634     12.47271        -0.024978     -0.124209     -0.562704
O      8.50569     10.43466      3.58206         0.403473     -0.010558     -0.004875
O      8.50569     10.54374     17.39634         0.466349      0.057616     -0.144098
O     12.47271     10.54374      3.58206        -0.236517      0.063759     -0.104944
O     12.47271     10.43466     17.39634        -0.849128      0.024785     -0.211796
O      3.58206      8.50569     10.43466         0.033226      0.898210      0.041733
O     17.39634      8.50569     10.54374        -0.034794      0.347879      0.080008
O      3.58206     12.47271     10.54374         0.066240     -0.427056      0.059676
O     17.39634     12.47271     10.43466        -0.160964     -0.731052      0.013040
O      3.58206     10.43466      8.50569        -0.055751     -0.061411      0.229605
O     17.39634     10.54374      8.50569        -0.133587      0.042591      0.445218
O      3.58206     10.54374     12.47271        -0.046968     -0.059608     -0.866549
O     17.39634     10.43466     12.47271        -0.190366      0.039255     -0.751923
O     10.43466      8.50569      3.58206         0.031320      0.681264      0.196640
O     10.54374      8.50569     17.39634         0.053963      0.405912     -0.073107
O     10.54374     12.47271      3.58206        -0.036096     -0.741182      0.247588
O     10.43466     12.47271     17.39634         0.057879     -0.853065     -0.279315
O      8.50569      3.58206     10.43466         0.499036      0.091072     -0.041154
O      8.50569     17.39634     10.54374         0.654012     -0.240498     -0.057911
O     12.47271      3.58206     10.54374        -0.502424      0.159694      0.041988
O     12.47271     17.39634     10.43466        -0.490536     -0.033191     -0.041462
O     11.90042     11.90042     19.56718        -0.306564     -0.310740      0.261557
O     19.56718     19.56718     19.56718         0.290993      0.274331      0.321136
O     19.56718     11.90042     11.90042         0.282918     -0.328042     -0.236308
O     11.90042     19.56718     11.90042        -0.221393      0.294932     -0.241922
O      9.45224      1.03696      9.45224        -0.071638      0.058745     -0.064200
O      1.03696      9.45224      9.45224         0.068718     -0.140817     -0.050411
O      1.03696      1.03696      1.03696         0.047084      0.030975      0.188745
O      9.45224      9.45224      1.03696        -0.035741     -0.085255      0.130850
Zr     10.48920      2.52580     10.48920        -0.002450     -0.076156     -0.030357
Zr     10.48920     18.45260     10.48920         0.038171      0.289882     -0.066679
Zr     10.48920     10.48920      2.52580        -0.082937     -0.026813     -0.372617
Zr     10.48920     10.48920     18.45260        -0.146533     -0.188861      0.305037
Zr      2.52580     10.48920     10.48920        -0.324525      0.334567     -0.479452
Zr     18.45260     10.48920     10.48920         0.218139      0.038069     -0.282352
Pd      9.05320     10.28264     13.41492        -0.000491      0.001349     -0.031608
Pd     10.63670      9.72309     11.14806        -0.019791      0.008175     -0.033936
Pd     13.76578      8.54366     12.76526        -0.010646      0.000293     -0.033513
Pd     11.00878     11.11462     15.08156        -0.005772     -0.009113     -0.026565
Pd     12.83320     11.18065     13.06038         0.015812      0.005455      0.000712
Pd     14.97460     10.86932     11.36510        -0.003257      0.026842     -0.001192
Pd      6.68572      7.41076     12.31647        -0.009973      0.003298      0.007901
Pd      9.23974      7.28635     10.22255        -0.026292     -0.007476     -0.014898
Pd      9.25902      7.64515     12.87928        -0.002073     -0.007228     -0.029644
Pd     11.71421      7.26431     11.57089        -0.012717      0.025560     -0.052387
Pd     11.38383      7.94080      8.92550        -0.017568      0.044195     -0.035931
Pd      7.23014     11.83063     12.02722         0.015813      0.014390     -0.011991
Pd      8.89470     14.65221      9.33485         0.002255     -0.010789     -0.006701
Pd      8.42960     12.70635     14.34511        -0.001833     -0.018225     -0.017071
Pd     13.29928     13.96803      8.66122         0.064950      0.042874     -0.030156
Pd     10.82248     13.17244      8.44784         0.016814      0.076097      0.024290
Pd     14.04641     11.42314      8.96273         0.042582      0.037571     -0.019196
Pd      8.63016     14.09311     12.08472         0.000253      0.000182      0.004406
Pd     12.23769     13.75867     13.99584         0.002255      0.001509      0.014812
Pd     11.14370     14.38923     11.05846         0.009287      0.009052      0.019950
Pd     14.07217     13.48897     12.16171        -0.000915      0.029504      0.008058
Pd     12.29476     12.10779     10.69418         0.020892      0.040866      0.009623
Pd     12.51685     12.08369      6.78484         0.054022      0.080388     -0.029771
Pd     13.57619      8.93458      7.89088        -0.010564     -0.006466      0.025228
Pd      6.88908      8.43631      8.92308        -0.017240      0.012123     -0.038475
Pd      5.52114      9.87246     11.33716        -0.023231      0.006095      0.000204
Pd      9.00216      9.87556      8.18649         0.059745     -0.050300      0.076273
Pd      8.94078      7.33848      7.55169        -0.056529     -0.045796     -0.014286
Pd      9.45904     12.01756     10.44386         0.008040      0.035142     -0.032280
Pd     11.42526     10.59448      8.73241        -0.003997      0.015332     -0.071920
Pd     11.10818      9.35999      6.46489         0.045683     -0.024882      0.007481
Pd      9.71707     11.69150      6.28717         0.062222     -0.066735      0.028773
Ir     11.37257      9.08372     13.50471         0.000177      0.007054     -0.048726
Ir     13.07829      9.38802     10.43448        -0.015657      0.021233     -0.016753
Ir     10.53159     12.35852     12.70763         0.015663      0.008133      0.014270
Ir      7.04024     10.97152      9.58023         0.075942      0.063448     -0.093419
Ir      8.25081     12.45183      8.20816         0.013219     -0.042881      0.068457
Ir      8.09728      9.34878     11.16269         0.014059     -0.046914     -0.003752
