152
# total energy = -1061.45078338 eVH     10.35389      5.87395      7.64558        -0.188808      0.122974      1.028915
H     10.62451     15.10445      7.64558         0.443386     -0.115909      0.757933
H     10.62451      5.87395     13.33282        -0.096964      0.097177     -0.461222
H     10.35389     15.10445     13.33282         0.095337     -0.183919     -0.398049
H      7.64558     10.35389      5.87395         0.915674      0.199695      0.211111
H      7.64558     10.62451     15.10445         0.209158     -0.021711     -0.072600
H     13.33282     10.62451      5.87395        -0.610699     -0.047178      0.162927
H     13.33282     10.35389     15.10445        -0.323902     -0.061111     -0.069586
H      5.87395      7.64558     10.35389         0.128957      0.362008     -0.075074
H     15.10445      7.64558     10.62451        -0.138058      0.467166      0.191654
H      5.87395     13.33282     10.62451         0.108148     -0.624502      0.094832
H     15.10445     13.33282     10.35389        -0.231730     -0.433686      0.091782
H      5.87395     10.35389      7.64558         0.155635      0.268893      0.379205
H     15.10445     10.62451      7.64558        -0.129876     -0.400483      0.763112
H      5.87395     10.62451     13.33282         0.034612      0.154118     -0.699455
H     15.10445     10.35389     13.33282         0.090631     -0.263859     -0.754232
H     10.35389      7.64558      5.87395        -0.141866      0.441460      0.221861
H     10.62451      7.64558     15.10445         0.367907      0.611433     -0.118916
H     10.62451     13.33282      5.87395         0.104140     -0.568052      0.103626
H     10.35389     13.33282     15.10445         0.261636     -0.733740     -0.080901
H      7.64558      5.87395     10.35389         0.475449      0.144741     -0.151887
H      7.64558     15.10445     10.62451         0.400185     -0.152236      0.407678
H     13.33282      5.87395     10.62451        -0.385260      0.158407     -0.072932
H     13.33282     15.10445     10.35389        -0.582056     -0.290189      0.122114
H     12.45634     12.45634     19.01126         0.231506      0.264938     -0.248291
H     19.01126     19.01126     19.01126        -0.260890     -0.259687     -0.229900
H     19.01126     12.45634     12.45634        -0.233809      0.274952      0.237126
H     12.45634     19.01126     12.45634         0.276788     -0.211181      0.254939
C     10.35284      5.61067      6.59456         0.285766     -0.301630     -0.801477
C     10.62556     15.36773      6.59456        -0.216808      0.636421     -0.248033
C     10.62556      5.61067     14.38384         0.255083     -0.248556      0.491227
C     10.35284     15.36773     14.38384        -0.112141      0.272812      0.254558
C      6.59456     10.35284      5.61067        -0.860353     -0.102671     -0.241082
C      6.59456     10.62556     15.36773        -0.513262      0.043435      0.343522
C     14.38384     10.62556      5.61067         0.793936     -0.041322     -0.646225
C     14.38384     10.35284     15.36773         0.263241     -0.079437      0.360548
C      5.61067      6.59456     10.35284        -0.397508     -0.359985      0.076072
C     15.36773      6.59456     10.62556         0.302632     -0.512318     -0.082023
C      5.61067     14.38384     10.62556        -0.147633      0.522061     -0.372912
C     15.36773     14.38384     10.35284         0.420078      0.843669     -0.097053
C      5.61067     10.35284      6.59456        -0.316662     -0.157073     -0.100945
C     15.36773     10.62556      6.59456         0.224299      0.296339     -0.598643
C      5.61067     10.62556     14.38384        -0.334701     -0.043149      1.200523
C     15.36773     10.35284     14.38384         0.287435     -0.054908      1.014927
C     10.35284      6.59456      5.61067         0.081486     -0.255165     -0.507224
C     10.62556      6.59456     15.36773         0.015865     -0.783345      0.144297
C     10.62556     14.38384      5.61067        -0.386958      0.164225     -0.895007
C     10.35284     14.38384     15.36773        -0.259964      0.861380      0.265302
C      6.59456      5.61067     10.35284        -0.349110     -0.286502      0.252387
C      6.59456     15.36773     10.62556        -0.316131      0.534996     -0.038597
C     14.38384      5.61067     10.62556         0.465539     -0.363909      0.060638
C     14.38384     15.36773     10.35284         0.969179      0.266146     -0.062364
C     10.40319      3.19606      7.29314         0.007229      0.551454     -0.318315
C     10.35913      4.25547      6.23373        -0.013632     -0.527956      0.428305
C      0.08601      7.29314      7.29314        -0.013461     -0.859203     -0.557782
C      0.13007      6.23373      6.23373        -0.178975      0.865582      0.145972
C      0.08601      3.19606      3.19606        -0.012012      0.401924      0.381822
C      0.13007      4.25547      4.25547         0.060623     -0.213085     -0.584618
C     10.40319      7.29314      3.19606        -0.048972     -1.071024      0.759773
C     10.35913      6.23373      4.25547         0.011607      0.345845     -0.217836
C      7.29314     10.40319      3.19606        -1.272236     -0.083267      0.325791
C      6.23373     10.35913      4.25547         0.271566      0.020616     -0.705752
C      7.29314      0.08601      7.29314        -0.833799     -0.001470     -0.413433
C      6.23373      0.13007      6.23373         0.336101      0.056115      0.128710
C      3.19606      0.08601      3.19606         0.326724      0.000419      0.430531
C      4.25547      0.13007      4.25547        -0.286179     -0.034846     -0.181947
C      3.19606     10.40319      7.29314         0.496544     -0.041904     -1.019774
C      4.25547     10.35913      6.23373        -0.314384     -0.073386      0.099701
C      3.19606      7.29314     10.40319         1.072386     -0.449957      0.008036
C      4.25547      6.23373     10.35913        -0.192380      0.166363     -0.003153
C      7.29314      7.29314      0.08601        -0.481781     -0.281142     -0.007202
C      6.23373      6.23373      0.13007         0.187137      0.144495     -0.149257
C      3.19606      3.19606      0.08601         0.351587      0.860612     -0.007958
C      4.25547      4.25547      0.13007        -0.546267     -0.190945      0.042695
C      7.29314      3.19606     10.40319        -0.194473      0.506342      0.025609
C      6.23373      4.25547     10.35913        -0.012054     -0.362918      0.044646
O     10.43466      3.58206      8.50569        -0.022404      0.134120      0.389548
O     10.54374     17.39634      8.50569         0.041543      0.053505      0.362648
O     10.54374      3.58206     12.47271         0.041735      0.194938     -0.572145
O     10.43466     17.39634     12.47271         0.027577     -0.006686     -0.445028
O      8.50569     10.43466      3.58206         0.758982     -0.062166     -0.002881
O      8.50569     10.54374     17.39634         0.853562      0.022228     -0.162138
O     12.47271     10.54374      3.58206        -0.347331      0.038533      0.078777
O     12.47271     10.43466     17.39634        -0.381336     -0.036216      0.037242
O      3.58206      8.50569     10.43466        -0.100239      0.268118     -0.077006
O     17.39634      8.50569     10.54374        -0.109724      0.446546      0.041184
O      3.58206     12.47271     10.54374         0.146907     -0.810698     -0.019161
O     17.39634     12.47271     10.43466        -0.242129     -0.638894     -0.013438
O      3.58206     10.43466      8.50569         0.128088     -0.033443      0.789701
O     17.39634     10.54374      8.50569         0.003796      0.034883      0.338887
O      3.58206     10.54374     12.47271         0.067244      0.017442     -0.460613
O     17.39634     10.43466     12.47271         0.040881      0.013074     -0.249996
O     10.43466      8.50569      3.58206        -0.057861      0.586069     -0.067972
O     10.54374      8.50569     17.39634         0.026785      0.875439     -0.206291
O     10.54374     12.47271      3.58206         0.068538     -0.369014      0.078467
O     10.43466     12.47271     17.39634        -0.056277     -0.641793     -0.198198
O      8.50569      3.58206     10.43466         0.343788      0.079529     -0.052984
O      8.50569     17.39634     10.54374         0.550101     -0.160543     -0.011650
O     12.47271      3.58206     10.54374        -0.366342      0.053431      0.034717
O     12.47271     17.39634     10.43466        -0.834990     -0.147786      0.066802
O     11.90042     11.90042     19.56718        -0.245009     -0.282587      0.237705
O     19.56718     19.56718     19.56718         0.299022      0.294833      0.250233
O     19.56718     11.90042     11.90042         0.229257     -0.304471     -0.278392
O     11.90042     19.56718     11.90042        -0.274513      0.179914     -0.273855
O      9.45224      1.03696      9.45224        -0.109732      0.088764     -0.085076
O      1.03696      9.45224      9.45224         0.126416     -0.146883     -0.171886
O      1.03696      1.03696      1.03696         0.138581      0.207151     -0.002635
O      9.45224      9.45224      1.03696        -0.211530     -0.169523      0.031358
Zr     10.48920      2.52580     10.48920        -0.002410     -0.232304      0.151059
Zr     10.48920     18.45260     10.48920        -0.305530      0.305167     -0.156600
Zr     10.48920     10.48920      2.52580         0.347227      0.407159     -0.231829
Zr     10.48920     10.48920     18.45260         0.003033      0.016882      0.471105
Zr      2.52580     10.48920     10.48920        -0.554142      0.026348      0.334233
Zr     18.45260     10.48920     10.48920         0.277495     -0.148765      0.006215
Pd      9.19355     14.62521      9.20923         0.005229      0.006821      0.018363
Pd      8.48172     13.22243     13.82404        -0.015498     -0.008692      0.000387
Pd     12.16968     14.10359      8.65441        -0.036772      0.010768     -0.004336
Pd     12.25800     12.75166     10.90410        -0.001462      0.003416      0.010533
Pd     11.79164      7.09032     11.90762         0.002228     -0.003731     -0.006399
Pd     11.16518     15.30683     10.90333         0.005135      0.006845     -0.003931
Pd      9.62402     13.15893     11.41189        -0.003885      0.003179     -0.005314
Pd     14.04424     12.38232      7.95784        -0.010689      0.019735      0.000368
Pd     11.58148     11.77041      6.75209         0.014572     -0.012460      0.013679
Pd      7.46528      8.54701      7.18151        -0.009973     -0.017338      0.008232
Pd      8.62887     12.06266      6.90752        -0.000029      0.004038      0.013507
Pd      9.74662      9.89716      8.00564        -0.018470     -0.016857     -0.000839
Pd      8.47632     14.70674      6.56549         0.015660      0.024884      0.004136
Pd     12.05427      9.05554      6.84800        -0.014417      0.002375     -0.005008
Pd      9.93080     10.02148      5.40349        -0.009362      0.002850      0.008287
Pd      6.91196      9.23283     12.16856        -0.010582     -0.016866      0.005196
Pd     12.40814      6.52093      7.68044        -0.006900      0.026057     -0.005122
Pd      5.57587     10.68557     10.11464         0.001437     -0.008000     -0.014570
Pd      7.56617      6.67858     12.70449        -0.009035     -0.021430     -0.004660
Ir     11.29341      9.55018     12.84596         0.001398     -0.026533     -0.007007
Ir     13.08846      9.24320     11.08534        -0.002089     -0.042992      0.028777
Ir      9.15809      8.42869     13.75111         0.011166      0.003240      0.017117
Ir     10.27813     10.37396     15.07320         0.004512     -0.010884      0.035112
Ir      7.11594     11.91593     11.84280        -0.004607     -0.000749      0.043198
Ir     14.41795     11.20012     10.32153         0.024668      0.008079      0.028003
Ir     12.29140     10.62059      9.06279        -0.060588      0.015343     -0.057690
Ir      8.93806     10.79996     12.89596        -0.022925      0.029336     -0.015076
Ir     10.03232     10.27909     10.62137        -0.002482      0.010243      0.008862
Ir     13.31501     11.20501     12.62003         0.000118      0.015746     -0.007432
Ir     11.10882     12.04551     13.34427         0.002400      0.010886     -0.022537
Ir      7.96353     11.72174      9.51468         0.006591      0.018726     -0.038384
Ir     11.28925      8.15191      9.45414         0.016285      0.000164      0.001055
Ir      6.97112     13.55503      8.34699         0.013951      0.003149      0.015169
Ir      9.07269      7.28895      8.79333        -0.019287     -0.004753     -0.018946
Ir      7.74642      9.20858      9.70740        -0.003430      0.000262     -0.012739
Ir     10.37114     12.32976      8.98899         0.004898      0.018375     -0.011763
Ir      9.32987      7.88860     11.25113        -0.004349      0.015015      0.002975
Ir     13.75562      8.46160      8.80214        -0.011921     -0.001250     -0.004060
