32
# total energy = -202.80217097 eVH      4.04616     -0.95328     10.00000         0.006025      0.000155     -0.000000
H      6.60370      7.10198     10.00000        -0.006025     -0.000155      0.000000
H      9.45234     -2.16798     10.00000        -0.003141      0.005190     -0.000000
H      1.19752      8.31668     10.00000         0.003141     -0.005190      0.000000
H      7.80122      3.12126     10.00000        -0.002856     -0.005290      0.000000
H      2.84864      3.02744     10.00000         0.002856      0.005290     -0.000000
H      1.19747      3.98087     10.00000         0.008128     -0.006461     -0.000000
H      9.45239      2.16783     10.00000        -0.008128      0.006461     -0.000000
H      2.84880      9.26993     10.00000        -0.009617     -0.003830     -0.000000
H      7.80106     -3.12123     10.00000         0.009617      0.003830     -0.000000
H      6.60359      5.19530     10.00000         0.001549      0.010291      0.000000
H      4.04627      0.95340     10.00000        -0.001549     -0.010291      0.000000
C      4.64814     -1.86214     10.00000        -0.144032     -0.059590     -0.000000
C      6.00172      8.01084     10.00000         0.144032      0.059590     -0.000000
C      9.93846     -1.19222     10.00000         0.123419     -0.094697     -0.000000
C      0.71140      7.34092     10.00000        -0.123419      0.094697      0.000000
C      6.71313      3.05435     10.00000         0.019954      0.154872     -0.000000
C      3.93673      3.09435     10.00000        -0.019954     -0.154872     -0.000000
C      0.71139      4.95619     10.00000        -0.119416     -0.061011     -0.000000
C      9.93847      1.19251     10.00000         0.119416      0.061011     -0.000000
C      3.93649      9.20323     10.00000         0.006985      0.133618     -0.000000
C      6.71337     -3.05453     10.00000        -0.006985     -0.133618     -0.000000
C      6.00197      4.28670     10.00000         0.112606     -0.073478     -0.000000
C      4.64789      1.86200     10.00000        -0.112606      0.073478      0.000000
C      6.02950     -1.85366     10.00000         0.076278      0.094164      0.000000
C      4.62036      8.00236     10.00000        -0.076278     -0.094164      0.000000
C      9.24043     -0.00016     10.00000        -0.119688      0.018475      0.000000
C      1.40943      6.14886     10.00000         0.119688     -0.018475      0.000000
C      6.02980      1.85381     10.00000         0.043438     -0.112684     -0.000000
C      4.62006      4.29489     10.00000        -0.043438      0.112684     -0.000000
Au      3.54994      6.14873     10.00000         0.000087     -0.000146     -0.000000
Au      7.09992     -0.00003     10.00000        -0.000087      0.000146     -0.000000
