152
# total energy = -1005.57727686 eVH     10.35389      5.87395      7.64558         0.159176      0.101588      0.568131
H     10.62451     15.10445      7.64558        -0.117358     -0.147802      0.498116
H     10.62451      5.87395     13.33282         0.584113      0.086788     -0.820059
H     10.35389     15.10445     13.33282         0.027258     -0.158865     -0.408200
H      7.64558     10.35389      5.87395         0.354665      0.037669      0.165131
H      7.64558     10.62451     15.10445         0.876222      0.522691     -0.005301
H     13.33282     10.62451      5.87395        -0.440025      0.348645      0.112105
H     13.33282     10.35389     15.10445        -0.850742     -0.072333      0.009735
H      5.87395      7.64558     10.35389         0.314324      1.196880      0.034573
H     15.10445      7.64558     10.62451        -0.106802      0.486279      0.292678
H      5.87395     13.33282     10.62451         0.186999     -0.622142      0.032184
H     15.10445     13.33282     10.35389        -0.077202     -0.951609     -0.203833
H      5.87395     10.35389      7.64558         0.207654      0.049495      0.442501
H     15.10445     10.62451      7.64558        -0.140264      0.510902      0.775425
H      5.87395     10.62451     13.33282         0.074478      0.405766     -0.989980
H     15.10445     10.35389     13.33282        -0.074247     -0.033612     -0.648836
H     10.35389      7.64558      5.87395         0.331569      1.159416      0.060762
H     10.62451      7.64558     15.10445         0.696896      0.675174     -0.211293
H     10.62451     13.33282      5.87395        -0.398332     -0.808149      0.267281
H     10.35389     13.33282     15.10445        -0.098264     -0.469333     -0.287268
H      7.64558      5.87395     10.35389         0.855219      0.055715     -0.218129
H      7.64558     15.10445     10.62451         0.806936     -0.180210      0.027306
H     13.33282      5.87395     10.62451        -0.723345      0.170654      0.518871
H     13.33282     15.10445     10.35389        -0.377805     -0.118636     -0.094218
H     12.45634     12.45634     19.01126         0.245947      0.271224     -0.233526
H     19.01126     19.01126     19.01126        -0.273248     -0.249069     -0.241595
H     19.01126     12.45634     12.45634        -0.276772      0.263133      0.220354
H     12.45634     19.01126     12.45634         0.236332     -0.263139      0.272805
C     10.35284      5.61067      6.59456        -0.321259     -0.735567     -0.091284
C     10.62556     15.36773      6.59456         0.065841      0.344384     -0.260484
C     10.62556      5.61067     14.38384        -0.149016     -0.512723      0.208779
C     10.35284     15.36773     14.38384         0.016633      0.195833      0.361677
C      6.59456     10.35284      5.61067        -0.391116      0.011881     -0.252427
C      6.59456     10.62556     15.36773        -0.612255      0.067789      0.638236
C     14.38384     10.62556      5.61067        -0.252432     -0.465968     -0.670997
C     14.38384     10.35284     15.36773         1.044111     -0.088016      0.178129
C      5.61067      6.59456     10.35284        -0.727236     -0.238013     -0.352599
C     15.36773      6.59456     10.62556         0.539398      0.011692     -0.340083
C      5.61067     14.38384     10.62556        -0.239749      0.699101     -0.013342
C     15.36773     14.38384     10.35284         0.284065      0.957631      0.029349
C      5.61067     10.35284      6.59456        -0.294383      0.000371     -0.761944
C     15.36773     10.62556      6.59456         0.491531     -0.266749      0.197973
C      5.61067     10.62556     14.38384        -0.664884     -0.040159      0.425074
C     15.36773     10.35284     14.38384         0.428603     -0.036039      1.007504
C     10.35284      6.59456      5.61067        -0.147381     -0.755473     -0.567028
C     10.62556      6.59456     15.36773        -0.083272     -0.399608      0.589381
C     10.62556     14.38384      5.61067         0.200859      1.140800     -0.360758
C     10.35284     14.38384     15.36773        -0.003067      0.825664      0.387180
C      6.59456      5.61067     10.35284         0.091045     -1.062583      0.241425
C      6.59456     15.36773     10.62556        -0.978824      0.228882      0.081072
C     14.38384      5.61067     10.62556         0.314708     -0.553762     -0.367232
C     14.38384     15.36773     10.35284         0.143679      0.380460     -0.078187
C     10.40319      3.19606      7.29314         0.005544      0.845759     -0.455232
C     10.35913      4.25547      6.23373         0.066348     -0.552091      0.101072
C      0.08601      7.29314      7.29314        -0.042589     -0.776670     -0.244053
C      0.13007      6.23373      6.23373        -0.042142      0.186447      0.476157
C      0.08601      3.19606      3.19606         0.018352      1.412015      0.267730
C      0.13007      4.25547      4.25547         0.020841     -0.644347     -0.245962
C     10.40319      7.29314      3.19606         0.003774     -0.333074      0.268648
C     10.35913      6.23373      4.25547         0.029827      0.026013     -0.731709
C      7.29314     10.40319      3.19606        -0.256780      0.017771      0.541579
C      6.23373     10.35913      4.25547         0.143854      0.044409     -0.060918
C      7.29314      0.08601      7.29314        -0.794648     -0.076337     -0.310438
C      6.23373      0.13007      6.23373         0.798084     -0.163523      0.421296
C      3.19606      0.08601      3.19606         0.935893     -0.023600      0.577479
C      4.25547      0.13007      4.25547        -0.545482     -0.084800     -0.631635
C      3.19606     10.40319      7.29314         0.539609     -0.009568     -0.759871
C      4.25547     10.35913      6.23373        -0.268828      0.066415      0.214925
C      3.19606      7.29314     10.40319         0.290789     -1.295763      0.028180
C      4.25547      6.23373     10.35913        -1.043662      0.020923      0.114648
C      7.29314      7.29314      0.08601        -0.435701     -0.421345     -0.014883
C      6.23373      6.23373      0.13007         0.532990      0.236247      0.012908
C      3.19606      3.19606      0.08601         0.452197      0.358496     -0.034910
C      4.25547      4.25547      0.13007        -0.131773     -0.585976     -0.045455
C      7.29314      3.19606     10.40319        -0.379499      0.439035      0.056029
C      6.23373      4.25547     10.35913         0.261717     -0.737367      0.137191
O     10.43466      3.58206      8.50569        -0.013829      0.056646      0.452098
O     10.54374     17.39634      8.50569         0.062357     -0.089291      0.362799
O     10.54374      3.58206     12.47271         0.027149     -0.120685     -0.146960
O     10.43466     17.39634     12.47271        -0.028483     -0.168747     -0.519345
O      8.50569     10.43466      3.58206         0.273973     -0.022217      0.010895
O      8.50569     10.54374     17.39634         0.764696     -0.037454     -0.175348
O     12.47271     10.54374      3.58206        -0.809310      0.097859      0.086151
O     12.47271     10.43466     17.39634        -0.475262      0.033566     -0.080140
O      3.58206      8.50569     10.43466         0.158731      1.073872     -0.032127
O     17.39634      8.50569     10.54374        -0.158223      0.583243      0.068746
O      3.58206     12.47271     10.54374         0.103847     -0.436724      0.039535
O     17.39634     12.47271     10.43466        -0.146073     -0.548420     -0.030675
O      3.58206     10.43466      8.50569         0.071755     -0.089788      0.610368
O     17.39634     10.54374      8.50569        -0.042422      0.088634      0.434403
O      3.58206     10.54374     12.47271         0.010177      0.034448     -0.490862
O     17.39634     10.43466     12.47271        -0.232267     -0.045577     -0.650041
O     10.43466      8.50569      3.58206        -0.038351      0.450732      0.139611
O     10.54374      8.50569     17.39634        -0.050371      0.684820     -0.211310
O     10.54374     12.47271      3.58206         0.037596     -1.003479      0.110033
O     10.43466     12.47271     17.39634         0.057507     -0.799176     -0.211777
O      8.50569      3.58206     10.43466         0.569884      0.154060     -0.054891
O      8.50569     17.39634     10.54374         0.526196     -0.181441      0.001224
O     12.47271      3.58206     10.54374        -0.604498      0.194338      0.002706
O     12.47271     17.39634     10.43466        -0.247861      0.068588     -0.044486
O     11.90042     11.90042     19.56718        -0.261401     -0.306536      0.230804
O     19.56718     19.56718     19.56718         0.324679      0.294914      0.253897
O     19.56718     11.90042     11.90042         0.315788     -0.261316     -0.236546
O     11.90042     19.56718     11.90042        -0.237679      0.301500     -0.328315
O      9.45224      1.03696      9.45224         0.002230      0.071089     -0.126485
O      1.03696      9.45224      9.45224         0.087019     -0.072972     -0.164505
O      1.03696      1.03696      1.03696         0.112408      0.168497      0.028963
O      9.45224      9.45224      1.03696        -0.094457     -0.112262      0.014362
Zr     10.48920      2.52580     10.48920        -0.096061     -0.224639     -0.017278
Zr     10.48920     18.45260     10.48920        -0.098769      0.186222      0.168577
Zr     10.48920     10.48920      2.52580        -0.106710     -0.438141     -0.211283
Zr     10.48920     10.48920     18.45260        -0.167491      0.005263      0.420084
Zr      2.52580     10.48920     10.48920        -0.345627      0.279535      0.288049
Zr     18.45260     10.48920     10.48920         0.166296      0.010602     -0.116780
Pd     13.62415      8.95223      9.13901        -0.001653     -0.005078      0.019323
Pd      5.70476      9.74216     10.00620        -0.003977      0.021124      0.019045
Pd      6.83374     11.47178     11.70698        -0.025658      0.084348     -0.011669
Pd     12.18676     13.11192      7.33539         0.001651     -0.007924     -0.002007
Pd     12.07669      7.87781      7.20404        -0.015038     -0.009543      0.032856
Pd      8.29204      7.05459      6.56144         0.000029     -0.004225      0.007266
Pd     10.88279     11.28612      5.57976         0.004927     -0.007985      0.001041
Pd     14.62463      8.53237      6.70137        -0.016217     -0.000386      0.013998
Pd      9.64432     11.80339      8.00169         0.005518     -0.003231     -0.002953
Pd      6.72775      6.78258     12.29246         0.035700      0.001845     -0.013335
Pd      6.38388      7.58292      8.27348        -0.003680      0.017109     -0.001579
Pd      6.94616      8.80340     13.94474        -0.047471     -0.061639      0.065129
Pd     11.61806      6.54439      9.51026        -0.027222     -0.006142      0.042458
Pd      9.73832      9.29438      6.90302        -0.009138     -0.001297      0.012514
Pd      9.02315     13.96749      9.40851        -0.003437      0.000379     -0.010671
Pd      9.95440      7.11619     11.56108        -0.079303      0.046840      0.037113
Pd     10.52380      8.96929      9.55817        -0.004933      0.003457      0.016227
Pd      9.35143     11.28895     10.60485        -0.007369      0.026544     -0.002556
Pd      8.88534      6.99882      9.12937        -0.006169      0.003960      0.007547
Pd      8.74790      6.86122     13.92831        -0.033900     -0.061677      0.070106
Pd      8.00174      8.98588     11.46176        -0.050883      0.081974      0.065893
Pd     11.95716     10.51674      7.83643         0.004966     -0.010267      0.000268
Pd      7.13814     12.05627      9.13153        -0.001935     -0.000551     -0.025201
Pd      8.02733      9.58900      8.82298         0.004704     -0.006355      0.036449
Pd     14.15664      6.49560      8.45191        -0.024306     -0.006827      0.007224
Pd     12.52984      8.25305     11.47274        -0.019763     -0.002254      0.009281
Pd      8.80633     11.36433     13.42485        -0.022905      0.023665     -0.010525
Pd     13.89898     11.92962      9.03840         0.004838     -0.000645     -0.004049
Pd     12.86989     10.57357     13.09059         0.006505      0.005076     -0.001152
Pd     14.72451     10.32148     11.13707         0.009467      0.011547      0.000349
Pd     12.05383     10.73822     10.58913         0.005969      0.007489     -0.005669
Pd     11.44989     13.15658      9.86536         0.000282      0.007301     -0.003290
Pd     13.56618     12.81822     11.66995         0.001191      0.005551     -0.003394
Pd     11.03775     12.53432     12.44462         0.002650     -0.000049     -0.000504
Pd     11.08373     11.34771     14.87797        -0.018761     -0.016734     -0.006351
Pd     10.46880      9.53875     12.54190        -0.001752      0.040361     -0.021323
Pd      9.42755      9.28867     14.95323        -0.018064     -0.017686     -0.060885
Pd      8.64254     13.55308     11.99530         0.020296      0.036344      0.000965
