152
# total energy = -1060.09299982 eVH     10.35389      5.87395      7.64558        -0.280534      0.044306      1.126234
H     10.62451     15.10445      7.64558         0.086940     -0.087388      0.924752
H     10.62451      5.87395     13.33282        -0.259369      0.077502     -0.787156
H     10.35389     15.10445     13.33282         0.097882     -0.302420     -0.865965
H      7.64558     10.35389      5.87395         0.931156     -0.139102      0.188758
H      7.64558     10.62451     15.10445         0.327075     -0.034871     -0.072412
H     13.33282     10.62451      5.87395        -0.860413      0.195603      0.205242
H     13.33282     10.35389     15.10445        -0.278724     -0.014368     -0.068095
H      5.87395      7.64558     10.35389         0.088227      0.416949     -0.008709
H     15.10445      7.64558     10.62451        -0.005927      0.491424     -0.030099
H      5.87395     13.33282     10.62451        -0.013960     -0.960284      0.081259
H     15.10445     13.33282     10.35389        -0.087562     -0.320618      0.004347
H      5.87395     10.35389      7.64558         0.285382      0.110201      0.403832
H     15.10445     10.62451      7.64558        -0.123454     -0.171694      0.667348
H      5.87395     10.62451     13.33282        -0.082589      0.462445     -0.619915
H     15.10445     10.35389     13.33282         0.242344     -0.616706     -0.836120
H     10.35389      7.64558      5.87395        -0.039860      0.485779      0.335610
H     10.62451      7.64558     15.10445         0.268337      0.781368     -0.027951
H     10.62451     13.33282      5.87395         0.127181     -0.575540      0.209137
H     10.35389     13.33282     15.10445         0.039681     -0.288589     -0.146237
H      7.64558      5.87395     10.35389         0.348829      0.101822      0.033533
H      7.64558     15.10445     10.62451         0.380210     -0.119109      0.168753
H     13.33282      5.87395     10.62451        -0.315496      0.131014     -0.029312
H     13.33282     15.10445     10.35389        -0.653100     -0.128905      0.148767
H     12.45634     12.45634     19.01126         0.256187      0.271379     -0.228310
H     19.01126     19.01126     19.01126        -0.246676     -0.267945     -0.245321
H     19.01126     12.45634     12.45634        -0.250579      0.269861      0.235483
H     12.45634     19.01126     12.45634         0.290505     -0.235581      0.234803
C     10.35284      5.61067      6.59456         0.400643     -0.416303     -1.423945
C     10.62556     15.36773      6.59456        -0.156290      0.591958     -0.650632
C     10.62556      5.61067     14.38384         0.381659     -0.334426      0.829031
C     10.35284     15.36773     14.38384        -0.222732      0.226719      1.076261
C      6.59456     10.35284      5.61067        -1.376350      0.021745     -0.229221
C      6.59456     10.62556     15.36773        -0.643660      0.063490      0.363908
C     14.38384     10.62556      5.61067         1.308959     -0.169176     -0.634315
C     14.38384     10.35284     15.36773         0.354051     -0.125516      0.357340
C      5.61067      6.59456     10.35284        -0.285549     -0.652450     -0.022225
C     15.36773      6.59456     10.62556         0.420287     -0.955029      0.032535
C      5.61067     14.38384     10.62556        -0.138171      1.164145     -0.183427
C     15.36773     14.38384     10.35284         0.468365      0.654979     -0.027210
C      5.61067     10.35284      6.59456        -0.371724     -0.099549     -0.729947
C     15.36773     10.62556      6.59456         0.404562      0.117224     -0.726564
C      5.61067     10.62556     14.38384        -0.383127     -0.170607      1.231748
C     15.36773     10.35284     14.38384         0.261240      0.191934      1.454939
C     10.35284      6.59456      5.61067        -0.055541     -0.722693     -0.592458
C     10.62556      6.59456     15.36773        -0.113843     -0.905223      0.350531
C     10.62556     14.38384      5.61067        -0.476051      0.406892     -0.713650
C     10.35284     14.38384     15.36773        -0.159167      0.615844      0.424211
C      6.59456      5.61067     10.35284        -0.516730     -0.333001      0.023307
C      6.59456     15.36773     10.62556        -0.369264      0.445311      0.059371
C     14.38384      5.61067     10.62556         0.447939     -0.368673      0.001424
C     14.38384     15.36773     10.35284         1.119578      0.495537     -0.073787
C     10.40319      3.19606      7.29314        -0.001652      0.695104     -0.339415
C     10.35913      4.25547      6.23373         0.011855     -0.422139      0.289966
C      0.08601      7.29314      7.29314        -0.014307     -0.370374     -0.505501
C      0.13007      6.23373      6.23373        -0.067475      0.857013      0.067467
C      0.08601      3.19606      3.19606        -0.003323      0.682761      0.265772
C      0.13007      4.25547      4.25547         0.034140     -0.270025     -0.544816
C     10.40319      7.29314      3.19606        -0.066534     -1.150411      0.585981
C     10.35913      6.23373      4.25547        -0.039121      0.363446     -0.198844
C      7.29314     10.40319      3.19606        -1.083727     -0.056468      0.195582
C      6.23373     10.35913      4.25547         0.366966      0.086781     -0.542225
C      7.29314      0.08601      7.29314        -0.438826      0.032800     -0.514567
C      6.23373      0.13007      6.23373         0.183730      0.127009      0.127347
C      3.19606      0.08601      3.19606         0.693601      0.024314      0.166441
C      4.25547      0.13007      4.25547        -0.173663     -0.051663     -0.355437
C      3.19606     10.40319      7.29314         0.389752     -0.026157     -0.897750
C      4.25547     10.35913      6.23373        -0.151489     -0.075802      0.100797
C      3.19606      7.29314     10.40319         0.607374     -0.398272      0.002818
C      4.25547      6.23373     10.35913        -0.112431      0.182535      0.001312
C      7.29314      7.29314      0.08601        -0.412818     -0.313590     -0.014851
C      6.23373      6.23373      0.13007         0.178226      0.187046     -0.066820
C      3.19606      3.19606      0.08601         0.289603      0.480205     -0.024057
C      4.25547      4.25547      0.13007        -0.405325     -0.231525     -0.034844
C      7.29314      3.19606     10.40319        -0.278341      0.593541     -0.010623
C      6.23373      4.25547     10.35913         0.005382     -0.110100      0.020015
O     10.43466      3.58206      8.50569        -0.028003      0.090375      0.318048
O     10.54374     17.39634      8.50569         0.062106     -0.128412      0.592053
O     10.54374      3.58206     12.47271         0.028109      0.106215     -0.393278
O     10.43466     17.39634     12.47271         0.090615     -0.047942     -0.391547
O      8.50569     10.43466      3.58206         0.709710     -0.062417      0.011897
O      8.50569     10.54374     17.39634         0.488939      0.057979     -0.081094
O     12.47271     10.54374      3.58206        -0.648082      0.116628      0.204992
O     12.47271     10.43466     17.39634        -0.284748     -0.003731      0.023809
O      3.58206      8.50569     10.43466         0.039366      0.459841     -0.068508
O     17.39634      8.50569     10.54374        -0.058782      0.451424      0.056894
O      3.58206     12.47271     10.54374         0.114382     -0.583143      0.001750
O     17.39634     12.47271     10.43466        -0.173496     -0.743579     -0.055455
O      3.58206     10.43466      8.50569         0.210571     -0.061331      0.786571
O     17.39634     10.54374      8.50569        -0.096085      0.075608      0.548459
O      3.58206     10.54374     12.47271        -0.001009     -0.002800     -0.267778
O     17.39634     10.43466     12.47271         0.037416     -0.012273     -0.228106
O     10.43466      8.50569      3.58206        -0.104634      0.567181     -0.114109
O     10.54374      8.50569     17.39634         0.067729      0.506103     -0.086958
O     10.54374     12.47271      3.58206         0.104708     -0.625659      0.133162
O     10.43466     12.47271     17.39634        -0.059814     -0.660537     -0.258420
O      8.50569      3.58206     10.43466         0.394680      0.025676     -0.037261
O      8.50569     17.39634     10.54374         0.631528     -0.155247      0.047446
O     12.47271      3.58206     10.54374        -0.508358      0.126482      0.034959
O     12.47271     17.39634     10.43466        -0.622287     -0.131557      0.040696
O     11.90042     11.90042     19.56718        -0.273998     -0.306921      0.232384
O     19.56718     19.56718     19.56718         0.304131      0.318546      0.299360
O     19.56718     11.90042     11.90042         0.284709     -0.324667     -0.232487
O     11.90042     19.56718     11.90042        -0.316006      0.229230     -0.202839
O      9.45224      1.03696      9.45224        -0.083879      0.086674     -0.068283
O      1.03696      9.45224      9.45224         0.103663     -0.117335     -0.048107
O      1.03696      1.03696      1.03696         0.083965      0.056382      0.096896
O      9.45224      9.45224      1.03696        -0.060986     -0.131896      0.131120
Zr     10.48920      2.52580     10.48920         0.032499     -0.090743      0.084162
Zr     10.48920     18.45260     10.48920        -0.172521      0.259733     -0.346473
Zr     10.48920     10.48920      2.52580         0.119818      0.355131     -0.345964
Zr     10.48920     10.48920     18.45260        -0.083091     -0.210455      0.193196
Zr      2.52580     10.48920     10.48920        -0.254648      0.128375      0.232232
Zr     18.45260     10.48920     10.48920         0.223983     -0.117686     -0.004573
Pd      9.39705     14.27149      9.34885        -0.002555      0.037548     -0.041867
Pd      8.61343     13.69249     12.99403        -0.014319     -0.021235      0.033724
Pd     12.03932     14.41340      8.73990         0.011414     -0.012923      0.004192
Pd     12.76232     12.82161     10.63569        -0.030900      0.005519      0.037891
Pd     12.14548      7.11727     12.61830        -0.003106      0.003931      0.001665
Pd     11.20711     14.84298     11.49675        -0.020596      0.036716     -0.027872
Pd     10.06998     12.50770     11.10832        -0.047130      0.054430     -0.039053
Pd     13.48447     12.13667      7.98175         0.013576      0.013501      0.004915
Pd     11.48180     11.55861      6.11191         0.007757      0.005258     -0.003982
Pd      7.86198      8.54449      7.54135         0.013633     -0.048235     -0.008447
Pd      8.73563     11.73313      6.88212        -0.009090      0.013368     -0.015130
Pd     10.30823      9.46556      8.14541        -0.011223     -0.005877      0.001237
Pd      8.50697     14.43849      6.83508        -0.012110      0.015186     -0.031016
Pd     12.36639      9.03526      6.58679        -0.000453      0.008702      0.012900
Pd      9.74432      9.61108      5.55397        -0.000122      0.006806      0.002995
Pd      6.86420      9.45728     12.18492        -0.002153     -0.000270     -0.002430
Pd     12.20896      6.69415      7.87916        -0.000936      0.012301      0.018023
Pd      5.94749     10.45955      9.72527        -0.012931     -0.007114     -0.002531
Pd      7.57581      7.14498     13.27978        -0.004381      0.024361      0.047863
Ir     11.78956      9.70254     13.05875        -0.042643     -0.000495      0.005995
Ir     13.57523      8.99826     11.44799        -0.015235      0.026236      0.005337
Ir      9.42357      8.82887     13.90694        -0.013822      0.009307      0.065963
Ir     10.55672     10.91764     14.88708        -0.018762     -0.019426      0.046223
Ir      7.28607     12.02386     11.36748        -0.011427     -0.013127     -0.010140
Ir     14.68857     10.84588     10.10715        -0.026930      0.029226      0.047463
Ir     12.19847     10.49159      9.65603         0.014240      0.007577     -0.016026
Ir      8.78528     11.03323     13.01208         0.028206     -0.006902     -0.016501
Ir     10.14135      9.86665     11.20770        -0.009218      0.029246     -0.045630
Ir     13.75405     11.36707     12.42391        -0.045207      0.006839      0.049174
Ir     11.63006     12.29231     13.10852        -0.091697     -0.015893     -0.001500
Ir      8.52793     11.07741      9.37796        -0.024716      0.023369     -0.025534
Ir     11.59851      7.97828     10.07514         0.007133      0.014786      0.016574
Ir      7.24340     13.00826      8.70001         0.012098      0.018813      0.002349
Ir      9.52002      6.99991      9.12068         0.005269     -0.010038      0.042209
Ir      8.06740      8.74904     10.09768        -0.006919      0.006401     -0.012961
Ir     10.75830     12.09699      8.53448        -0.010648      0.012004     -0.022734
Ir      9.56426      7.46553     11.67498        -0.013438      0.065383      0.038757
Ir     13.69944      8.70809      8.80760         0.004770      0.019773      0.025830
