152
# total energy = -1004.56625024 eVH     10.35389      5.87395      7.64558        -0.110871      0.101021      0.676676
H     10.62451     15.10445      7.64558        -0.083890     -0.186985      0.526918
H     10.62451      5.87395     13.33282         0.406264      0.017108     -0.867982
H     10.35389     15.10445     13.33282         0.047128     -0.168157     -0.495687
H      7.64558     10.35389      5.87395         0.359547      0.041897      0.152073
H      7.64558     10.62451     15.10445         0.975548      0.630931      0.016543
H     13.33282     10.62451      5.87395        -0.481044      0.167428      0.126202
H     13.33282     10.35389     15.10445        -0.833698     -0.245589      0.036889
H      5.87395      7.64558     10.35389         0.239620      1.738328      0.196339
H     15.10445      7.64558     10.62451        -0.093045      0.513833      0.254451
H      5.87395     13.33282     10.62451         0.195074     -0.566149     -0.013343
H     15.10445     13.33282     10.35389         0.124643     -1.229179     -0.439282
H      5.87395     10.35389      7.64558         0.147346      0.043808      0.487872
H     15.10445     10.62451      7.64558        -0.200364      0.761283      1.227560
H      5.87395     10.62451     13.33282         0.005674      0.511363     -1.177120
H     15.10445     10.35389     13.33282         0.035553     -0.195143     -0.788981
H     10.35389      7.64558      5.87395         0.179006      1.343212      0.092809
H     10.62451      7.64558     15.10445         0.521536      0.763828     -0.104509
H     10.62451     13.33282      5.87395        -0.367079     -0.675436      0.311956
H     10.35389     13.33282     15.10445        -0.260839     -0.483107     -0.331524
H      7.64558      5.87395     10.35389         1.137753     -0.196917     -0.090097
H      7.64558     15.10445     10.62451         0.831912     -0.190837     -0.012694
H     13.33282      5.87395     10.62451        -0.587620      0.132270      0.630307
H     13.33282     15.10445     10.35389        -0.575029     -0.031459     -0.257753
H     12.45634     12.45634     19.01126         0.266648      0.258843     -0.229431
H     19.01126     19.01126     19.01126        -0.271830     -0.260229     -0.222621
H     19.01126     12.45634     12.45634        -0.278141      0.257643      0.224324
H     12.45634     19.01126     12.45634         0.240573     -0.278706      0.246380
C     10.35284      5.61067      6.59456        -0.170729     -0.815745     -0.342603
C     10.62556     15.36773      6.59456         0.038534      0.228120     -0.359162
C     10.62556      5.61067     14.38384        -0.032968     -0.401399      0.587878
C     10.35284     15.36773     14.38384         0.003939      0.272343      0.497546
C      6.59456     10.35284      5.61067        -0.451726      0.041213     -0.292118
C      6.59456     10.62556     15.36773        -0.913907      0.150968      0.693458
C     14.38384     10.62556      5.61067         0.566765     -0.047986     -0.878744
C     14.38384     10.35284     15.36773         0.936261     -0.115913      0.327440
C      5.61067      6.59456     10.35284        -0.877722     -0.861420     -0.402513
C     15.36773      6.59456     10.62556         0.684588     -0.020018     -0.263393
C      5.61067     14.38384     10.62556        -0.237056      0.619975      0.011955
C     15.36773     14.38384     10.35284         0.324596      1.188715      0.082739
C      5.61067     10.35284      6.59456        -0.274618      0.017345     -0.714838
C     15.36773     10.62556      6.59456         0.551371     -0.254976     -0.685753
C      5.61067     10.62556     14.38384        -0.541683     -0.015396      0.740312
C     15.36773     10.35284     14.38384         0.508355     -0.087060      1.067128
C     10.35284      6.59456      5.61067        -0.056388     -0.917683     -0.390463
C     10.62556      6.59456     15.36773         0.135341     -0.795023      0.497695
C     10.62556     14.38384      5.61067         0.097967      1.130352     -0.298573
C     10.35284     14.38384     15.36773        -0.026972      1.088255      0.521319
C      6.59456      5.61067     10.35284        -0.462309     -1.240154      0.106997
C      6.59456     15.36773     10.62556        -0.994287      0.187047      0.101872
C     14.38384      5.61067     10.62556        -0.144270     -0.472322     -0.311311
C     14.38384     15.36773     10.35284         0.292659      0.545224     -0.052105
C     10.40319      3.19606      7.29314         0.012761      0.911811     -0.510354
C     10.35913      4.25547      6.23373         0.050338     -0.559074      0.130666
C      0.08601      7.29314      7.29314        -0.028636     -0.983844     -0.206637
C      0.13007      6.23373      6.23373        -0.097963      0.289188      0.318378
C      0.08601      3.19606      3.19606         0.052793      1.364926      0.150621
C      0.13007      4.25547      4.25547        -0.037023     -0.366466     -0.348840
C     10.40319      7.29314      3.19606        -0.001374     -0.476444      0.271152
C     10.35913      6.23373      4.25547        -0.010998      0.108470     -0.758121
C      7.29314     10.40319      3.19606        -0.284230      0.018508      0.545609
C      6.23373     10.35913      4.25547         0.203982      0.086435     -0.111923
C      7.29314      0.08601      7.29314        -1.021909     -0.101153     -0.365247
C      6.23373      0.13007      6.23373         0.699284     -0.202346      0.458240
C      3.19606      0.08601      3.19606         1.246979     -0.018409      0.456966
C      4.25547      0.13007      4.25547        -0.682936     -0.183039     -0.324597
C      3.19606     10.40319      7.29314         0.571958      0.020354     -0.388215
C      4.25547     10.35913      6.23373        -0.233612      0.105481      0.225978
C      3.19606      7.29314     10.40319         0.347657     -0.913700      0.034228
C      4.25547      6.23373     10.35913        -1.111537      0.155096      0.184030
C      7.29314      7.29314      0.08601        -0.475590     -0.504258     -0.014812
C      6.23373      6.23373      0.13007         0.488458      0.321332      0.008741
C      3.19606      3.19606      0.08601         0.522249      0.406817     -0.025889
C      4.25547      4.25547      0.13007        -0.037115     -0.720396     -0.093869
C      7.29314      3.19606     10.40319        -0.398897      0.506549      0.055390
C      6.23373      4.25547     10.35913         0.547471     -0.704067      0.222769
O     10.43466      3.58206      8.50569        -0.007067      0.065626      0.476448
O     10.54374     17.39634      8.50569         0.057319     -0.020435      0.254474
O     10.54374      3.58206     12.47271        -0.002057     -0.098934     -0.110138
O     10.43466     17.39634     12.47271        -0.037488     -0.137399     -0.490461
O      8.50569     10.43466      3.58206         0.347251     -0.023973      0.037572
O      8.50569     10.54374     17.39634         0.849722     -0.050821     -0.153050
O     12.47271     10.54374      3.58206        -0.889198      0.099271      0.045289
O     12.47271     10.43466     17.39634        -0.583267      0.023779     -0.141350
O      3.58206      8.50569     10.43466         0.191875      0.912364     -0.018652
O     17.39634      8.50569     10.54374        -0.150820      0.674528      0.044965
O      3.58206     12.47271     10.54374         0.104259     -0.544088      0.051496
O     17.39634     12.47271     10.43466        -0.166691     -0.603809     -0.033559
O      3.58206     10.43466      8.50569         0.077445     -0.063257      0.471014
O     17.39634     10.54374      8.50569         0.019074      0.096690      0.400242
O      3.58206     10.54374     12.47271        -0.031525      0.027386     -0.358795
O     17.39634     10.43466     12.47271        -0.214568     -0.033680     -0.676132
O     10.43466      8.50569      3.58206        -0.035303      0.563058      0.158536
O     10.54374      8.50569     17.39634        -0.088092      0.790541     -0.225365
O     10.54374     12.47271      3.58206         0.079240     -0.943353      0.106459
O     10.43466     12.47271     17.39634         0.073660     -0.760850     -0.198882
O      8.50569      3.58206     10.43466         0.570654      0.143422     -0.048340
O      8.50569     17.39634     10.54374         0.553556     -0.150652     -0.000111
O     12.47271      3.58206     10.54374        -0.684980      0.152725      0.021711
O     12.47271     17.39634     10.43466        -0.410350     -0.042386     -0.036064
O     11.90042     11.90042     19.56718        -0.314641     -0.294778      0.236952
O     19.56718     19.56718     19.56718         0.309975      0.304684      0.216913
O     19.56718     11.90042     11.90042         0.329525     -0.269576     -0.231969
O     11.90042     19.56718     11.90042        -0.257968      0.341129     -0.271508
O      9.45224      1.03696      9.45224        -0.019422      0.080529     -0.132339
O      1.03696      9.45224      9.45224         0.067826     -0.043979     -0.140070
O      1.03696      1.03696      1.03696         0.087480      0.120381      0.071693
O      9.45224      9.45224      1.03696        -0.071983     -0.062665      0.053395
Zr     10.48920      2.52580     10.48920        -0.049421     -0.206671      0.020927
Zr     10.48920     18.45260     10.48920        -0.017291      0.090988      0.185384
Zr     10.48920     10.48920      2.52580        -0.270479     -0.434453     -0.312128
Zr     10.48920     10.48920     18.45260         0.061966      0.032243      0.432641
Zr      2.52580     10.48920     10.48920        -0.225768      0.122466      0.031436
Zr     18.45260     10.48920     10.48920         0.179378     -0.012693     -0.021862
Pd     13.08393      8.55488      9.76318         0.059366     -0.022903     -0.045743
Pd      6.13598      9.67378     10.19593        -0.048391     -0.033236     -0.025463
Pd      6.96575     11.59837     11.77011         0.010550      0.023560     -0.000597
Pd     12.33369     13.15139      7.35637        -0.043511      0.044596      0.077326
Pd     12.12621      7.78160      7.05423        -0.018019     -0.036814     -0.004756
Pd      8.47228      7.26541      6.90577        -0.003051     -0.038034     -0.023858
Pd     11.29090     11.39847      5.55357        -0.013870      0.038086      0.072588
Pd     14.53495      8.75240      7.48983         0.048496      0.028441     -0.074774
Pd      9.93754     11.82016      7.98302        -0.070704     -0.045493      0.077354
Pd      7.01513      7.10677     12.05328        -0.008103     -0.070675      0.048261
Pd      6.34819      7.48812      8.41748        -0.000847      0.003812     -0.001168
Pd      7.21226      9.09758     13.71614         0.001273      0.011167     -0.091718
Pd     11.45122      6.38460      9.21895         0.029519      0.022957      0.000240
Pd      9.97750      9.47713      6.65134        -0.027266      0.007529      0.018706
Pd      9.04575     14.02270      9.34865         0.072983     -0.084598     -0.000619
Pd     10.83982      7.46518     11.44899        -0.009130      0.004071      0.062608
Pd     10.48183      9.12476      9.31504         0.052649      0.033676     -0.002101
Pd      9.50547     11.52498     10.59071        -0.062982      0.009592      0.021722
Pd      8.87746      7.10973      9.59105        -0.026957     -0.015427     -0.059590
Pd      9.19446      7.42702     13.47202        -0.057553      0.003744     -0.023672
Pd      8.55152      9.20419     11.32284        -0.015754     -0.023876      0.058147
Pd     12.27313     10.40382      7.84603         0.031205     -0.041599     -0.040183
Pd      7.31324     11.97775      9.14963        -0.006441     -0.021024     -0.004442
Pd      8.07157      9.57818      8.42128         0.013877      0.018329      0.052963
Pd     14.03705      6.36515      8.50151        -0.012553      0.009555     -0.012835
Pd     13.11617      8.50354     12.39985        -0.012865      0.025656     -0.045863
Pd      8.97410     11.43812     13.39684        -0.042032      0.038544     -0.042922
Pd     13.87854     11.98746      9.13240         0.027889      0.081743     -0.047470
Pd     13.14987     11.17436     13.19449        -0.022310     -0.065276      0.014886
Pd     14.70173     10.36580     11.08026         0.000502     -0.028390     -0.067983
Pd     12.05716     10.79841     10.72135        -0.034106     -0.057325      0.031100
Pd     11.51582     13.32468      9.85570         0.010385     -0.048965     -0.070401
Pd     13.62638     13.17781     11.61542        -0.004136     -0.039313     -0.011009
Pd     11.13213     12.79002     12.43107         0.022578     -0.043093      0.081668
Pd     11.19512     11.59215     14.89980        -0.013199     -0.045500     -0.002465
Pd     10.85417      9.74068     12.82335        -0.018067     -0.017371      0.046762
Pd      9.55399      9.51868     15.20724        -0.021475     -0.031717     -0.030658
Pd      8.71230     13.72391     11.99945        -0.068000      0.001076      0.013889
