31
# total energy = -194.04270309 eVH      2.20663      8.01551      7.50000         0.095301      0.071123     -0.000000
H      8.92277      3.11389      7.50000        -0.095301     -0.071123     -0.000000
H      3.11389      2.20663      7.50000        -0.071123      0.095301      0.000000
H      8.01551      8.92277      7.50000         0.071123     -0.095301      0.000000
H      1.48522      6.35856      7.50000         0.017639      0.013370     -0.000000
H      9.64418      4.77084      7.50000        -0.017639     -0.013370     -0.000000
H      4.77084      1.48522      7.50000        -0.013370      0.017639      0.000000
H      6.35856      9.64418      7.50000         0.013370     -0.017639     -0.000000
H      4.17931      9.01938      7.50000         0.042794     -0.043948     -0.000000
H      6.95009      2.11002      7.50000        -0.042794      0.043948     -0.000000
H      2.11002      4.17931      7.50000         0.043948      0.042794     -0.000000
H      9.01938      6.95009      7.50000        -0.043948     -0.042794      0.000000
C      8.51299      0.92808      7.50000        -0.231960     -0.349632     -0.000000
C      2.61641     10.20132      7.50000         0.231960      0.349632      0.000000
C     10.20132      8.51299      7.50000         0.349632     -0.231960     -0.000000
C      0.92808      2.61641      7.50000        -0.349632      0.231960      0.000000
C      9.19756     10.76347      7.50000        -0.011166      0.082173     -0.000000
C      1.93184      0.36593      7.50000         0.011166     -0.082173      0.000000
C      0.36593      9.19756      7.50000        -0.082173     -0.011166      0.000000
C     10.76347      1.93184      7.50000         0.082173      0.011166     -0.000000
C      9.37396      2.10056      7.50000        -0.017732      0.534590      0.000000
C      1.75544      9.02884      7.50000         0.017732     -0.534590      0.000000
C      9.02884      9.37396      7.50000        -0.534590     -0.017732     -0.000000
C      2.10056      1.75544      7.50000         0.534590      0.017732      0.000000
N      3.96952     10.02347      7.50000         0.045335     -0.166036     -0.000000
N      7.15988      1.10593      7.50000        -0.045335      0.166036      0.000000
N      1.10593      3.96952      7.50000         0.166036      0.045335      0.000000
N     10.02347      7.15988      7.50000        -0.166036     -0.045335      0.000000
Ir      0.00000      0.00000      7.50000        -0.000000     -0.000000     -0.000000
Ir      5.56470      0.00000      7.50000        -0.000000     -0.000000     -0.000000
Ir      0.00000      5.56470      7.50000        -0.000000     -0.000000     -0.000000
