26
# total energy = -169.62684381 eVH      0.37675      6.90722      7.50000        -0.022643      0.010811     -0.000000
H      2.82513      2.05941      7.50000         0.020017     -0.004964     -0.000000
H      6.20223      6.72313      7.50000        -0.043491     -0.016534     -0.000000
H      8.93723     -1.55238      7.50000         0.022643     -0.010811     -0.000000
H      6.48885      3.29544      7.50000        -0.020017      0.004964     -0.000000
H      3.11175     -1.36828      7.50000         0.043491      0.016534     -0.000000
C      8.50668      4.15570      7.50000         0.141762      0.038856     -0.000000
C      1.45167     -0.08426      7.50000         0.148664      0.008025      0.000000
C      8.70503     -3.71551      7.50000         0.215331      0.063834      0.000000
C      0.80730      1.19915      7.50000        -0.141762     -0.038856     -0.000000
C      7.86231      5.43911      7.50000        -0.148664     -0.008025      0.000000
C      0.60896      9.07036      7.50000        -0.215331     -0.063834     -0.000000
C      8.20180     -2.36167      7.50000         0.521671     -0.169884      0.000000
C      7.54572      2.98727      7.50000         0.175065     -0.457071     -0.000000
C      2.85944     -0.31564      7.50000        -0.246503     -0.067555      0.000000
C      1.11218      7.71652      7.50000        -0.521671      0.169884      0.000000
C      1.76826      2.36758      7.50000        -0.175065      0.457071     -0.000000
C      6.45455      5.67048      7.50000         0.246503      0.067555     -0.000000
O      6.96584     -2.08087      7.50000        -0.551462      0.196423     -0.000000
O      7.80725      1.77708      7.50000        -0.081092      0.420140      0.000000
O      3.87381      0.50750      7.50000         0.092182      0.103302     -0.000000
O      2.34814      7.43572      7.50000         0.551462     -0.196423     -0.000000
O      1.50673      3.57777      7.50000         0.081092     -0.420140      0.000000
O      5.44017      4.84734      7.50000        -0.092182     -0.103302     -0.000000
Au      5.61461     -0.57841      7.50000         0.058132      0.065935      0.000000
Au      3.69937      5.93326      7.50000        -0.058132     -0.065935     -0.000000
