152
# total energy = -1060.20489470 eVH     10.35389      5.87395      7.64558        -0.268614      0.110020      1.059685
H     10.62451     15.10445      7.64558         0.128701     -0.072747      0.881591
H     10.62451      5.87395     13.33282        -0.265998      0.075650     -0.763492
H     10.35389     15.10445     13.33282         0.101643     -0.297693     -0.809439
H      7.64558     10.35389      5.87395         0.897219     -0.207154      0.209167
H      7.64558     10.62451     15.10445         0.302720     -0.024030     -0.061731
H     13.33282     10.62451      5.87395        -0.874368      0.189528      0.213515
H     13.33282     10.35389     15.10445        -0.284640     -0.031598     -0.058672
H      5.87395      7.64558     10.35389         0.093975      0.422372     -0.010912
H     15.10445      7.64558     10.62451        -0.048270      0.440861     -0.010714
H      5.87395     13.33282     10.62451        -0.011403     -0.946392      0.081164
H     15.10445     13.33282     10.35389        -0.099938     -0.333679      0.005071
H      5.87395     10.35389      7.64558         0.319601      0.059382      0.367988
H     15.10445     10.62451      7.64558        -0.120149     -0.152988      0.640010
H      5.87395     10.62451     13.33282        -0.059092      0.447191     -0.610651
H     15.10445     10.35389     13.33282         0.221695     -0.608786     -0.888152
H     10.35389      7.64558      5.87395        -0.013506      0.488822      0.338520
H     10.62451      7.64558     15.10445         0.348341      0.800059     -0.002164
H     10.62451     13.33282      5.87395         0.142396     -0.562767      0.193891
H     10.35389     13.33282     15.10445         0.042921     -0.296420     -0.166386
H      7.64558      5.87395     10.35389         0.375245      0.116153      0.062461
H      7.64558     15.10445     10.62451         0.380055     -0.129323      0.183329
H     13.33282      5.87395     10.62451        -0.308233      0.136758     -0.012129
H     13.33282     15.10445     10.35389        -0.660367     -0.121115      0.151776
H     12.45634     12.45634     19.01126         0.261342      0.271728     -0.224904
H     19.01126     19.01126     19.01126        -0.249106     -0.268004     -0.243129
H     19.01126     12.45634     12.45634        -0.247658      0.272295      0.237379
H     12.45634     19.01126     12.45634         0.291127     -0.233833      0.235363
C     10.35284      5.61067      6.59456         0.389108     -0.413118     -1.341911
C     10.62556     15.36773      6.59456        -0.179998      0.620497     -0.655349
C     10.62556      5.61067     14.38384         0.363882     -0.279946      0.753634
C     10.35284     15.36773     14.38384        -0.198311      0.240696      1.001098
C      6.59456     10.35284      5.61067        -1.381138      0.030626     -0.216165
C      6.59456     10.62556     15.36773        -0.648435      0.065065      0.353059
C     14.38384     10.62556      5.61067         1.337710     -0.183881     -0.629703
C     14.38384     10.35284     15.36773         0.325898     -0.134557      0.359240
C      5.61067      6.59456     10.35284        -0.270807     -0.663927     -0.026818
C     15.36773      6.59456     10.62556         0.405792     -0.856093      0.013394
C      5.61067     14.38384     10.62556        -0.155028      1.156866     -0.200326
C     15.36773     14.38384     10.35284         0.496374      0.705166     -0.035711
C      5.61067     10.35284      6.59456        -0.366046     -0.108839     -0.773482
C     15.36773     10.62556      6.59456         0.392242      0.110963     -0.661973
C      5.61067     10.62556     14.38384        -0.393237     -0.156265      1.218840
C     15.36773     10.35284     14.38384         0.215980      0.227762      1.396403
C     10.35284      6.59456      5.61067        -0.070168     -0.727722     -0.524566
C     10.62556      6.59456     15.36773        -0.149772     -1.004004      0.372618
C     10.62556     14.38384      5.61067        -0.493509      0.368391     -0.733994
C     10.35284     14.38384     15.36773        -0.173283      0.745457      0.514246
C      6.59456      5.61067     10.35284        -0.561288     -0.331740      0.007138
C      6.59456     15.36773     10.62556        -0.346077      0.443968      0.066935
C     14.38384      5.61067     10.62556         0.433765     -0.306831      0.004759
C     14.38384     15.36773     10.35284         1.129074      0.478863     -0.091714
C     10.40319      3.19606      7.29314        -0.009001      0.806699     -0.327011
C     10.35913      4.25547      6.23373         0.017549     -0.359929      0.292139
C      0.08601      7.29314      7.29314        -0.024453     -0.395267     -0.498163
C      0.13007      6.23373      6.23373        -0.056334      0.868128      0.091902
C      0.08601      3.19606      3.19606        -0.009507      0.676787      0.262579
C      0.13007      4.25547      4.25547         0.049390     -0.263801     -0.548663
C     10.40319      7.29314      3.19606        -0.064304     -1.090713      0.621098
C     10.35913      6.23373      4.25547        -0.052537      0.324949     -0.183264
C      7.29314     10.40319      3.19606        -1.105705     -0.056102      0.211817
C      6.23373     10.35913      4.25547         0.383998      0.102437     -0.526750
C      7.29314      0.08601      7.29314        -0.507727      0.024982     -0.433948
C      6.23373      0.13007      6.23373         0.172469      0.114396      0.110479
C      3.19606      0.08601      3.19606         0.677773      0.016894      0.169018
C      4.25547      0.13007      4.25547        -0.176456     -0.058968     -0.351416
C      3.19606     10.40319      7.29314         0.396241     -0.026474     -0.947506
C      4.25547     10.35913      6.23373        -0.133857     -0.053883      0.120222
C      3.19606      7.29314     10.40319         0.632161     -0.391687      0.005267
C      4.25547      6.23373     10.35913        -0.115857      0.180310      0.008908
C      7.29314      7.29314      0.08601        -0.434884     -0.300826     -0.013368
C      6.23373      6.23373      0.13007         0.155778      0.144860     -0.071255
C      3.19606      3.19606      0.08601         0.307680      0.504490     -0.019601
C      4.25547      4.25547      0.13007        -0.410001     -0.246560     -0.028562
C      7.29314      3.19606     10.40319        -0.284817      0.602511     -0.008061
C      6.23373      4.25547     10.35913         0.013471     -0.106296      0.015538
O     10.43466      3.58206      8.50569        -0.025850      0.067909      0.279439
O     10.54374     17.39634      8.50569         0.065113     -0.115117      0.578067
O     10.54374      3.58206     12.47271         0.030651      0.106276     -0.409661
O     10.43466     17.39634     12.47271         0.096624     -0.061797     -0.427758
O      8.50569     10.43466      3.58206         0.743140     -0.071249      0.019661
O      8.50569     10.54374     17.39634         0.566272      0.060390     -0.108439
O     12.47271     10.54374      3.58206        -0.636749      0.115413      0.213184
O     12.47271     10.43466     17.39634        -0.305444      0.005057      0.033346
O      3.58206      8.50569     10.43466         0.032059      0.438132     -0.062226
O     17.39634      8.50569     10.54374        -0.054447      0.451302      0.057520
O      3.58206     12.47271     10.54374         0.105832     -0.599272      0.002188
O     17.39634     12.47271     10.43466        -0.187989     -0.746179     -0.049326
O      3.58206     10.43466      8.50569         0.211728     -0.053492      0.803729
O     17.39634     10.54374      8.50569        -0.059197      0.074823      0.468957
O      3.58206     10.54374     12.47271         0.001383     -0.003793     -0.267615
O     17.39634     10.43466     12.47271         0.036694     -0.010261     -0.235761
O     10.43466      8.50569      3.58206        -0.110689      0.512264     -0.101969
O     10.54374      8.50569     17.39634         0.055700      0.524720     -0.088454
O     10.54374     12.47271      3.58206         0.099139     -0.624845      0.127558
O     10.43466     12.47271     17.39634        -0.066814     -0.711606     -0.290212
O      8.50569      3.58206     10.43466         0.395472      0.021467     -0.048900
O      8.50569     17.39634     10.54374         0.644876     -0.152372      0.043975
O     12.47271      3.58206     10.54374        -0.525607      0.119946      0.024968
O     12.47271     17.39634     10.43466        -0.635542     -0.125290      0.041588
O     11.90042     11.90042     19.56718        -0.281132     -0.301668      0.218520
O     19.56718     19.56718     19.56718         0.310722      0.322869      0.294134
O     19.56718     11.90042     11.90042         0.281158     -0.325540     -0.238682
O     11.90042     19.56718     11.90042        -0.315345      0.227319     -0.203194
O      9.45224      1.03696      9.45224        -0.075055      0.090513     -0.083550
O      1.03696      9.45224      9.45224         0.101679     -0.108377     -0.064936
O      1.03696      1.03696      1.03696         0.081838      0.057742      0.090525
O      9.45224      9.45224      1.03696        -0.063053     -0.129007      0.132165
Zr     10.48920      2.52580     10.48920         0.048829     -0.099568      0.143762
Zr     10.48920     18.45260     10.48920        -0.186345      0.247835     -0.358406
Zr     10.48920     10.48920      2.52580         0.123767      0.370468     -0.328740
Zr     10.48920     10.48920     18.45260        -0.071410     -0.270143      0.265880
Zr      2.52580     10.48920     10.48920        -0.240719      0.126454      0.250184
Zr     18.45260     10.48920     10.48920         0.192249     -0.144798     -0.016022
Pd      9.35836     14.31607      9.28606         0.016895      0.056023      0.010798
Pd      8.59609     13.62850     13.06745         0.041312     -0.019310      0.043693
Pd     12.03909     14.40274      8.75464        -0.051995      0.016364      0.012945
Pd     12.73539     12.86632     10.69945        -0.031828      0.030923      0.022444
Pd     12.13200      7.19261     12.67638        -0.032759      0.006229     -0.024635
Pd     11.15914     14.92494     11.44067        -0.021466      0.011950     -0.027461
Pd     10.01024     12.59143     11.06304        -0.046897     -0.021975      0.026247
Pd     13.47620     12.17588      7.98680         0.122037      0.044358     -0.017392
Pd     11.50347     11.55620      6.12973        -0.053235      0.009950     -0.108097
Pd      7.93785      8.35774      7.51390        -0.022231     -0.030188     -0.022858
Pd      8.72285     11.75080      6.84826        -0.030588      0.026957      0.018113
Pd     10.29648      9.44074      8.16258        -0.030350      0.032556     -0.047532
Pd      8.49490     14.46211      6.78386        -0.038452     -0.023608     -0.071149
Pd     12.38112      9.03858      6.61184         0.014792      0.034072     -0.009626
Pd      9.72863      9.62643      5.56599         0.049167     -0.004665      0.035619
Pd      6.82978      9.45684     12.14208        -0.023733     -0.035163     -0.019825
Pd     12.19669      6.75984      7.97406        -0.015473     -0.096544     -0.038332
Pd      5.92459     10.50450      9.68846        -0.047522     -0.012324      0.020526
Pd      7.52706      7.22365     13.38944         0.136495      0.072069     -0.009971
Ir     11.72114      9.77420     13.06733        -0.055456      0.000443     -0.005733
Ir     13.54786      9.07284     11.47764        -0.094896     -0.018190      0.054286
Ir      9.42765      8.85038     14.01049        -0.125415     -0.120555      0.057896
Ir     10.49770     11.01130     14.91824         0.030954     -0.118819      0.068834
Ir      7.27441     12.00982     11.36226         0.008438      0.019729     -0.086550
Ir     14.64493     10.91939     10.15644        -0.044220      0.061305      0.060874
Ir     12.16544     10.57688      9.63969         0.102409     -0.190818      0.149852
Ir      8.77501     10.98779     12.98948         0.016105      0.196274     -0.009502
Ir     10.11003      9.92612     11.14755         0.076196      0.060499      0.000025
Ir     13.70404     11.41602     12.51554         0.006712      0.028339      0.030760
Ir     11.53112     12.34183     13.08041        -0.092232     -0.074671      0.045598
Ir      8.50816     11.09753      9.34537        -0.116240      0.197097     -0.057506
Ir     11.58452      8.02633     10.15974         0.047879      0.022454      0.031728
Ir      7.21715     13.02391      8.66351         0.029876      0.050487      0.016198
Ir      9.54126      6.95886      9.23642         0.036450     -0.038408      0.001231
Ir      8.05232      8.76691     10.04882        -0.094233     -0.049660     -0.000486
Ir     10.71835     12.13251      8.50266        -0.072228      0.068097     -0.065790
Ir      9.50516      7.59085     11.75307         0.032379     -0.082948      0.092716
Ir     13.68658      8.78481      8.86750         0.070373      0.016525     -0.002924
