152
# total energy = -1110.37959866 eVH     10.35389      5.87395      7.64558        -0.359817     -0.143364      1.076016
H     10.62451     15.10445      7.64558         0.356819      0.082149      0.936165
H     10.62451      5.87395     13.33282        -0.318060     -0.696935     -1.382600
H     10.35389     15.10445     13.33282        -0.613533      0.407304     -0.326673
H      7.64558     10.35389      5.87395         0.545660     -0.530407     -0.089602
H      7.64558     10.62451     15.10445         0.372915     -0.239926      0.043581
H     13.33282     10.62451      5.87395        -0.550984      0.629535     -0.032085
H     13.33282     10.35389     15.10445        -0.528523      0.406787      0.161509
H      5.87395      7.64558     10.35389         0.147002      0.529687      0.033136
H     15.10445      7.64558     10.62451         0.431632      0.945668      0.263639
H      5.87395     13.33282     10.62451        -0.224703     -0.476475      0.362572
H     15.10445     13.33282     10.35389         0.029151     -0.304878     -0.385024
H      5.87395     10.35389      7.64558        -0.083075     -0.374898      1.449610
H     15.10445     10.62451      7.64558         0.212701      0.464400      1.294480
H      5.87395     10.62451     13.33282        -0.184430     -0.356160     -1.172090
H     15.10445     10.35389     13.33282         0.576496      0.937883     -1.526066
H     10.35389      7.64558      5.87395        -0.553273      0.507844     -0.184054
H     10.62451      7.64558     15.10445        -0.138978      0.499406      0.181021
H     10.62451     13.33282      5.87395         0.887519     -1.372491     -0.321591
H     10.35389     13.33282     15.10445         0.256553     -0.556824     -0.090257
H      7.64558      5.87395     10.35389         0.716974      0.171517     -0.155096
H      7.64558     15.10445     10.62451         1.978363      0.781309      0.208172
H     13.33282      5.87395     10.62451        -2.688202     -0.957498     -0.469341
H     13.33282     15.10445     10.35389        -0.875478     -0.049282     -0.251750
H     12.45634     12.45634     19.01126         0.272015      0.257662     -0.227315
H     19.01126     19.01126     19.01126        -0.266716     -0.255077     -0.238396
H     19.01126     12.45634     12.45634        -0.283074      0.281034      0.186308
H     12.45634     19.01126     12.45634         0.256142     -0.251440      0.235900
C     10.35284      5.61067      6.59456         0.084461     -0.501963     -1.233239
C     10.62556     15.36773      6.59456         0.174552      0.759939     -0.825069
C     10.62556      5.61067     14.38384         0.181703     -0.311593      1.804838
C     10.35284     15.36773     14.38384         0.103587      0.388576      1.803904
C      6.59456     10.35284      5.61067        -1.128575     -0.111007     -0.865034
C      6.59456     10.62556     15.36773        -0.693315     -0.101632      0.762875
C     14.38384     10.62556      5.61067         0.865465     -0.112416     -1.000547
C     14.38384     10.35284     15.36773         1.200204      0.166820      1.106435
C      5.61067      6.59456     10.35284        -0.675631     -0.857231     -0.176889
C     15.36773      6.59456     10.62556         1.971426     -0.252143     -0.184229
C      5.61067     14.38384     10.62556        -1.573616     -0.009284     -0.128565
C     15.36773     14.38384     10.35284         0.485820      0.069417      0.015774
C      5.61067     10.35284      6.59456        -0.273880      0.201344     -1.347481
C     15.36773     10.62556      6.59456         0.284218     -0.232202     -0.996915
C      5.61067     10.62556     14.38384        -0.263227      0.416622      1.442651
C     15.36773     10.35284     14.38384         0.046820     -0.449494      1.929834
C     10.35284      6.59456      5.61067        -0.182355     -0.888707     -0.688231
C     10.62556      6.59456     15.36773        -0.109224     -0.765685      1.051725
C     10.62556     14.38384      5.61067        -0.497355      2.017354     -0.774151
C     10.35284     14.38384     15.36773        -0.278509      1.420747      0.486723
C      6.59456      5.61067     10.35284        -0.969520     -0.412909      0.084867
C      6.59456     15.36773     10.62556        -1.300630      0.366258     -0.331598
C     14.38384      5.61067     10.62556         1.289900     -1.242404      0.178181
C     14.38384     15.36773     10.35284         0.434672      0.314526      0.070576
C     10.40319      3.19606      7.29314         0.002118      0.308631     -0.103033
C     10.35913      4.25547      6.23373         0.140001     -0.536831      0.018448
C      0.08601      7.29314      7.29314        -0.053322     -0.297841     -0.425996
C      0.13007      6.23373      6.23373        -0.123089      0.701366      0.031263
C      0.08601      3.19606      3.19606        -0.107604      1.636468      0.171130
C      0.13007      4.25547      4.25547        -0.088106     -0.402561     -1.230770
C     10.40319      7.29314      3.19606         0.016300     -0.432791      0.125536
C     10.35913      6.23373      4.25547         0.261719      0.081938     -0.508679
C      7.29314     10.40319      3.19606        -1.673457      0.007072      0.325698
C      6.23373     10.35913      4.25547         0.658202      0.077773     -0.612552
C      7.29314      0.08601      7.29314        -0.404957     -0.012425     -0.306423
C      6.23373      0.13007      6.23373         0.676678     -0.055331      0.263391
C      3.19606      0.08601      3.19606         0.658883     -0.016819      0.185183
C      4.25547      0.13007      4.25547        -0.370310     -0.074196     -0.527357
C      3.19606     10.40319      7.29314         0.368382      0.019336     -0.317174
C      4.25547     10.35913      6.23373        -0.728913      0.066805      0.367285
C      3.19606      7.29314     10.40319         0.295362     -0.211399     -0.006502
C      4.25547      6.23373     10.35913         0.047879      0.643552      0.092117
C      7.29314      7.29314      0.08601        -0.718361     -0.605292     -0.020499
C      6.23373      6.23373      0.13007         0.865042      1.130611     -0.073194
C      3.19606      3.19606      0.08601         0.815297      0.501968      0.008685
C      4.25547      4.25547      0.13007        -0.326132     -1.742393     -0.126305
C      7.29314      3.19606     10.40319        -0.329819      0.275304     -0.003807
C      6.23373      4.25547     10.35913         0.511262     -0.028731      0.229937
O     10.43466      3.58206      8.50569        -0.048061      0.182780      0.258162
O     10.54374     17.39634      8.50569         0.041983     -0.233360      0.485296
O     10.54374      3.58206     12.47271         0.084350     -0.064549     -0.035267
O     10.43466     17.39634     12.47271        -0.022980     -0.141262     -0.275644
O      8.50569     10.43466      3.58206         0.986525      0.184755      0.385032
O      8.50569     10.54374     17.39634         0.572620      0.084121     -0.228436
O     12.47271     10.54374      3.58206        -0.423104     -0.039281      0.186533
O     12.47271     10.43466     17.39634        -0.516954     -0.069925     -0.196921
O      3.58206      8.50569     10.43466         0.181971      0.431764     -0.030095
O     17.39634      8.50569     10.54374        -0.230015      0.714183      0.044042
O      3.58206     12.47271     10.54374         0.160703     -0.674559      0.024965
O     17.39634     12.47271     10.43466        -0.185622     -0.480187     -0.012024
O      3.58206     10.43466      8.50569         0.224184     -0.060041      0.401735
O     17.39634     10.54374      8.50569        -0.170518      0.036798      0.410709
O      3.58206     10.54374     12.47271         0.146326      0.020957     -0.305861
O     17.39634     10.43466     12.47271         0.072396     -0.050398     -0.082008
O     10.43466      8.50569      3.58206         0.000782      0.275152      0.181199
O     10.54374      8.50569     17.39634         0.070772      0.435551     -0.179558
O     10.54374     12.47271      3.58206        -0.222118     -0.969880      0.341976
O     10.43466     12.47271     17.39634        -0.083848     -0.449881     -0.245081
O      8.50569      3.58206     10.43466         0.494622      0.196060     -0.012004
O      8.50569     17.39634     10.54374         0.662595     -0.198431      0.022062
O     12.47271      3.58206     10.54374        -0.741153      0.278397      0.036637
O     12.47271     17.39634     10.43466        -0.438151     -0.202869     -0.044159
O     11.90042     11.90042     19.56718        -0.346103     -0.307689      0.259316
O     19.56718     19.56718     19.56718         0.325279      0.311290      0.282515
O     19.56718     11.90042     11.90042         0.276854     -0.276660     -0.140347
O     11.90042     19.56718     11.90042        -0.306126      0.285864     -0.233895
O      9.45224      1.03696      9.45224        -0.058794      0.071675     -0.047384
O      1.03696      9.45224      9.45224         0.035723     -0.073953     -0.072074
O      1.03696      1.03696      1.03696         0.059408      0.142312      0.101161
O      9.45224      9.45224      1.03696        -0.135711     -0.092457      0.101198
Zr     10.48920      2.52580     10.48920         0.153598     -0.167751     -0.163386
Zr     10.48920     18.45260     10.48920        -0.097236      0.181624     -0.045615
Zr     10.48920     10.48920      2.52580         0.333328     -0.309719     -0.198891
Zr     10.48920     10.48920     18.45260         0.007374     -0.086724      0.205747
Zr      2.52580     10.48920     10.48920        -0.067468      0.170984     -0.051577
Zr     18.45260     10.48920     10.48920         0.140825     -0.127252     -0.249441
Ir     12.04982     12.48618     10.46038        -0.003669     -0.003318      0.002637
Ir     11.18798      7.41649     10.29272         0.020904     -0.002608     -0.014622
Ir      8.83298      7.37194     11.56154         0.011289     -0.007765     -0.013424
Ir      7.47938     11.65556      7.65842        -0.005611     -0.004986     -0.001030
Ir     11.59495     12.08645      7.12147         0.000899     -0.002483     -0.006817
Ir     13.76168      8.98618      7.54818         0.008383      0.002092     -0.004283
Ir     12.48793     13.95435      8.41686        -0.004673     -0.001084     -0.002145
Ir      9.72659     11.26157      5.55919         0.005150     -0.000287     -0.007669
Ir      9.08100     13.46209      7.07626        -0.003473     -0.005329      0.005156
Ir      9.28072      9.66567      7.52259        -0.004645     -0.000424     -0.015269
Ir     13.27478      7.03958     11.95436        -0.000049      0.005394      0.005674
Ir     13.58879      7.03422      9.11630         0.020473      0.005450     -0.003062
Ir     11.03436      7.60048     12.83958         0.008218     -0.005861     -0.016962
Ir     13.60881     11.56194      8.75513         0.002314      0.004913     -0.000629
Ir     11.50490      9.64554      6.23272        -0.000766     -0.006547     -0.006087
Ir      7.15287      9.17415      8.93716        -0.004763     -0.013062     -0.011122
Ir     14.06076     11.42962     11.65853        -0.008072      0.004449     -0.005898
Ir     11.65594      9.85451      8.88757        -0.000441     -0.013092     -0.010455
Ir      9.43446      9.51675     10.24382         0.007279     -0.006452     -0.003681
Ir     13.86645      9.40275     10.18334         0.011687      0.004775     -0.003847
Ir     13.81734      9.15789     12.90355         0.006090     -0.000046     -0.011190
Ir     11.69151      9.76322     11.56271         0.005800     -0.001722     -0.005516
Ir      9.91305     11.74634      8.97340         0.002997     -0.003660     -0.004194
Ir      9.06831      7.43515      8.81940         0.020173      0.003435     -0.016518
Ir     11.56332      7.56583      7.76721         0.033354     -0.018162     -0.017378
Ir      9.25120      9.48896     13.01661         0.007157     -0.007245     -0.007129
Ir      7.51864     13.91312      8.99340         0.000516     -0.005343     -0.001565
Ir     10.88776     14.11495     11.94926        -0.011481     -0.005780      0.002970
Ir     10.11952     14.16286      9.52071        -0.004545     -0.009592     -0.003156
Ir      9.79610     11.69614     11.72767         0.001732     -0.013576      0.003023
Ir      7.58975     11.58333     10.21157        -0.000836     -0.010695      0.001225
Ir      8.36019     13.75503     11.58526        -0.005120     -0.007817     -0.000120
Ir      7.52735     11.57594     12.82857         0.000723     -0.012905     -0.001960
Ir      9.77073     11.61977     14.34474         0.004109     -0.008735      0.002259
Ir     13.48487     13.88122     12.19101        -0.000408      0.004064     -0.000416
Ir     11.99406     12.05394     13.08480        -0.003459     -0.009940     -0.009892
Ir     11.57577      9.80511     14.20234         0.001151     -0.004781     -0.016240
Ir      7.14850      9.37884     11.49677         0.002216     -0.012390     -0.002273
