152
# total energy = -1093.11864225 eVH     10.35389      5.87395      7.64558         0.151225     -0.125504      1.320671
H     10.62451     15.10445      7.64558        -0.166752      0.123253      1.421216
H     10.62451      5.87395     13.33282         0.162480     -0.063517     -1.185156
H     10.35389     15.10445     13.33282        -0.063438     -0.070821     -0.974797
H      7.64558     10.35389      5.87395         0.472342      0.013678     -0.054964
H      7.64558     10.62451     15.10445         0.412893      0.004079     -0.005123
H     13.33282     10.62451      5.87395        -0.662158     -0.038381     -0.003316
H     13.33282     10.35389     15.10445        -0.416908      0.007441      0.002647
H      5.87395      7.64558     10.35389        -0.134605      1.273353      0.146684
H     15.10445      7.64558     10.62451        -0.002001      0.529160      0.038069
H      5.87395     13.33282     10.62451        -0.059518     -0.239286      0.033652
H     15.10445     13.33282     10.35389         0.245439     -1.612319      0.085031
H      5.87395     10.35389      7.64558        -0.086420     -0.706786      0.463614
H     15.10445     10.62451      7.64558         0.515550      0.841707      0.048425
H      5.87395     10.62451     13.33282        -0.023320     -0.184882     -0.293882
H     15.10445     10.35389     13.33282        -0.096496      0.207431     -0.102936
H     10.35389      7.64558      5.87395        -0.188613      0.450409      0.037000
H     10.62451      7.64558     15.10445         0.060095      0.579432      0.232701
H     10.62451     13.33282      5.87395        -0.020971     -0.482726     -0.156128
H     10.35389     13.33282     15.10445        -0.165880     -0.485774      0.232137
H      7.64558      5.87395     10.35389         0.449907     -0.011696     -0.042963
H      7.64558     15.10445     10.62451         0.300485      0.019553     -0.033960
H     13.33282      5.87395     10.62451        -0.215814     -0.096782     -0.019847
H     13.33282     15.10445     10.35389        -0.507122      0.124878     -0.027557
H     12.45634     12.45634     19.01126         0.265065      0.247254     -0.244197
H     19.01126     19.01126     19.01126        -0.261867     -0.243065     -0.253229
H     19.01126     12.45634     12.45634        -0.262739      0.265818      0.232478
H     12.45634     19.01126     12.45634         0.274562     -0.254152      0.226473
C     10.35284      5.61067      6.59456        -0.226079     -0.272814     -1.746054
C     10.62556     15.36773      6.59456         0.427006      0.119796     -1.874334
C     10.62556      5.61067     14.38384        -0.326372     -0.107372      1.663493
C     10.35284     15.36773     14.38384         0.301734      0.129474      1.649854
C      6.59456     10.35284      5.61067        -0.828026     -0.105246     -0.299262
C      6.59456     10.62556     15.36773        -0.836947     -0.012692      0.098980
C     14.38384     10.62556      5.61067         1.038568      0.034400     -0.233313
C     14.38384     10.35284     15.36773         0.785525     -0.008358      0.191862
C      5.61067      6.59456     10.35284        -0.089518     -1.551841      0.002500
C     15.36773      6.59456     10.62556         0.260406     -0.999245      0.031977
C      5.61067     14.38384     10.62556        -0.381553      0.746798      0.035427
C     15.36773     14.38384     10.35284         0.050833      1.853017     -0.070541
C      5.61067     10.35284      6.59456        -0.706072      0.247580     -1.789445
C     15.36773     10.62556      6.59456         0.775249     -0.211293     -2.011536
C      5.61067     10.62556     14.38384        -0.646660      0.090508      1.651328
C     15.36773     10.35284     14.38384         0.598734     -0.076476      1.419994
C     10.35284      6.59456      5.61067         0.027292     -1.585063     -0.782434
C     10.62556      6.59456     15.36773        -0.037167     -1.797035      0.759580
C     10.62556     14.38384      5.61067         0.109492      1.794104     -0.881448
C     10.35284     14.38384     15.36773         0.050645      1.905433      0.662156
C      6.59456      5.61067     10.35284        -0.780063     -0.796209     -0.014099
C      6.59456     15.36773     10.62556        -1.051940      0.560965      0.075236
C     14.38384      5.61067     10.62556         1.052616     -0.776793      0.096731
C     14.38384     15.36773     10.35284         0.877853      0.961083      0.005196
C     10.40319      3.19606      7.29314         0.000261      0.536543     -0.534730
C     10.35913      4.25547      6.23373        -0.024331     -0.837451      0.512913
C      0.08601      7.29314      7.29314         0.019437     -0.487038     -0.580079
C      0.13007      6.23373      6.23373         0.029938      0.888355      0.471242
C      0.08601      3.19606      3.19606         0.024264      0.709164      0.440404
C      0.13007      4.25547      4.25547        -0.041965     -0.770711     -0.494369
C     10.40319      7.29314      3.19606        -0.008190     -0.728375      0.502330
C     10.35913      6.23373      4.25547         0.020747      0.591230     -0.505983
C      7.29314     10.40319      3.19606        -0.303382     -0.009094      0.605289
C      6.23373     10.35913      4.25547         0.174154     -0.075024     -0.177069
C      7.29314      0.08601      7.29314        -0.234419     -0.030397     -0.393824
C      6.23373      0.13007      6.23373         0.152199     -0.094352      0.374510
C      3.19606      0.08601      3.19606         0.409487      0.010316      0.419083
C      4.25547      0.13007      4.25547        -0.189336      0.071081     -0.213904
C      3.19606     10.40319      7.29314         0.256012      0.026394     -0.484483
C      4.25547     10.35913      6.23373        -0.163008      0.102706      0.388146
C      3.19606      7.29314     10.40319         0.187283     -0.305032     -0.001291
C      4.25547      6.23373     10.35913        -0.554103      0.189250      0.042353
C      7.29314      7.29314      0.08601        -0.583339     -0.467042      0.005785
C      6.23373      6.23373      0.13007         0.123496      0.229440     -0.062179
C      3.19606      3.19606      0.08601         0.564518      0.411691     -0.000112
C      4.25547      4.25547      0.13007        -0.059574     -0.096265     -0.029439
C      7.29314      3.19606     10.40319        -0.211185      0.365431      0.000871
C      6.23373      4.25547     10.35913         0.623650     -0.260930      0.024389
O     10.43466      3.58206      8.50569         0.012093      0.227943      0.481978
O     10.54374     17.39634      8.50569        -0.030402     -0.230877      0.509370
O     10.54374      3.58206     12.47271         0.078270      0.153064     -0.371612
O     10.43466     17.39634     12.47271        -0.110324     -0.148780     -0.384812
O      8.50569     10.43466      3.58206         0.385900     -0.019186      0.054057
O      8.50569     10.54374     17.39634         0.451472      0.058395     -0.120422
O     12.47271     10.54374      3.58206        -0.513805     -0.010101      0.118183
O     12.47271     10.43466     17.39634        -0.436763     -0.054592     -0.114384
O      3.58206      8.50569     10.43466         0.169901      0.422738     -0.048719
O     17.39634      8.50569     10.54374        -0.083158      0.554761      0.045910
O      3.58206     12.47271     10.54374         0.046277     -0.508758      0.040267
O     17.39634     12.47271     10.43466        -0.175193     -0.464707     -0.020298
O      3.58206     10.43466      8.50569         0.183438     -0.015923      0.486307
O     17.39634     10.54374      8.50569        -0.120303     -0.010447      0.456448
O      3.58206     10.54374     12.47271         0.165348      0.082209     -0.442855
O     17.39634     10.43466     12.47271        -0.207253     -0.077325     -0.578346
O     10.43466      8.50569      3.58206         0.051911      0.609530      0.259673
O     10.54374      8.50569     17.39634         0.060985      0.514216     -0.218387
O     10.54374     12.47271      3.58206        -0.016180     -0.668763      0.282018
O     10.43466     12.47271     17.39634        -0.030842     -0.530528     -0.228838
O      8.50569      3.58206     10.43466         0.513141      0.148448     -0.030212
O      8.50569     17.39634     10.54374         0.609698     -0.094364      0.051854
O     12.47271      3.58206     10.54374        -0.635029      0.120810      0.025783
O     12.47271     17.39634     10.43466        -0.496134     -0.140597     -0.015303
O     11.90042     11.90042     19.56718        -0.309990     -0.285075      0.269024
O     19.56718     19.56718     19.56718         0.309645      0.271794      0.291569
O     19.56718     11.90042     11.90042         0.313778     -0.314428     -0.234278
O     11.90042     19.56718     11.90042        -0.334349      0.281425     -0.226580
O      9.45224      1.03696      9.45224        -0.040853      0.055115     -0.065364
O      1.03696      9.45224      9.45224         0.029361     -0.080214     -0.060381
O      1.03696      1.03696      1.03696         0.026176      0.049119      0.132963
O      9.45224      9.45224      1.03696        -0.035003     -0.084661      0.134743
Zr     10.48920      2.52580     10.48920        -0.104112     -0.120262     -0.008106
Zr     10.48920     18.45260     10.48920         0.132654      0.187394     -0.115030
Zr     10.48920     10.48920      2.52580         0.011052      0.088821     -0.321709
Zr     10.48920     10.48920     18.45260        -0.028522     -0.020193      0.147435
Zr      2.52580     10.48920     10.48920        -0.030934     -0.029707     -0.042438
Zr     18.45260     10.48920     10.48920         0.118436      0.115648     -0.172270
Pd     13.02310      8.07515      7.66596        -0.058539     -0.004198      0.005126
Pd      9.57642     14.60712     11.72141        -0.012953     -0.017945      0.033566
Pd     12.34894     10.92256     10.43248         0.015676     -0.057521      0.014860
Pd     14.73320     10.07024     11.56436        -0.041893     -0.007989      0.009794
Pd     11.01784      9.28398      6.18132        -0.024797      0.038208      0.011395
Pd      6.98412      8.50116      9.02485        -0.083388      0.008227     -0.026589
Ir     10.27388     11.87373     11.75838         0.004462     -0.017339      0.019938
Ir     12.96495      8.31310     10.34001        -0.017167      0.044276      0.002787
Ir     12.31332     11.00602      7.73113        -0.009336     -0.017528      0.017292
Ir      9.66429     14.37701      9.13158         0.009410      0.026468      0.010715
Ir     10.83995      9.20632     11.72945        -0.014287      0.017390      0.026830
Ir      8.72515     10.05134      7.77386        -0.027738     -0.011065      0.013646
Ir     13.86752     12.55119      9.02583         0.001619      0.004549      0.017011
Ir     11.96414     13.58296      7.79635         0.002662      0.016284      0.021196
Ir     14.31637      9.94132      9.02644        -0.020738     -0.028102      0.020439
Ir      9.26103      7.43414     10.42425         0.001344     -0.002777     -0.020150
Ir      8.15044     12.70008      7.83031         0.016005      0.023832     -0.027420
Ir      9.20716      7.58821      7.84466        -0.040788     -0.039827     -0.014015
Ir     11.86608     13.56130     13.01886        -0.031985     -0.028873     -0.002087
Ir     11.46785      6.71934     11.75126        -0.051744      0.008909     -0.026671
Ir     10.24745     11.81403      9.07751         0.047249     -0.010121     -0.007280
Ir     12.96647      8.38073     12.98628        -0.024337     -0.021635      0.021921
Ir     10.86578      9.15736      9.00289        -0.040020      0.038501     -0.024346
Ir     11.78033     13.60596     10.39575         0.046649      0.012430      0.009165
Ir     13.83622     12.66084     11.78074         0.007802      0.001932     -0.010468
Ir     12.39665     11.03881     13.09458        -0.009522     -0.033448     -0.015144
Ir     10.14356     11.68667      6.48337        -0.022291     -0.021883      0.029450
Ir     11.36328      6.59639      9.24025        -0.003228     -0.007786     -0.037781
Ir      7.24748      8.35741     11.83334        -0.024992     -0.012812     -0.045312
Ir      8.18784     12.70509     10.42896        -0.015041      0.030678     -0.000804
Ir     10.94449      9.28770     14.28883        -0.033492     -0.006620      0.007124
Ir      8.10640     12.55503     12.98856        -0.010487     -0.025008     -0.010020
Ir      6.57610     11.21255      9.10081         0.028239     -0.035295      0.038495
Ir      8.69680     10.05973     13.08143        -0.031060     -0.021918     -0.032033
Ir      6.61775     10.90171     11.56132        -0.022191     -0.014539     -0.012018
Ir      9.18691      7.48130     13.08368        -0.033038     -0.011380     -0.049385
Ir     10.21492     11.67262     14.36816         0.015527     -0.035844     -0.029409
Ir      8.75212     10.05398     10.41920        -0.055568      0.003464      0.018499
