152
# total energy = -1060.48258658 eVH     10.35389      5.87395      7.64558        -0.213555      0.137146      0.985222
H     10.62451     15.10445      7.64558         0.325475     -0.089861      0.819535
H     10.62451      5.87395     13.33282        -0.297022      0.083717     -0.724750
H     10.35389     15.10445     13.33282         0.155935     -0.278226     -0.753509
H      7.64558     10.35389      5.87395         0.856818     -0.219341      0.217561
H      7.64558     10.62451     15.10445         0.248073      0.033096     -0.058965
H     13.33282     10.62451      5.87395        -0.777833      0.075260      0.150557
H     13.33282     10.35389     15.10445        -0.305972     -0.091500     -0.029403
H      5.87395      7.64558     10.35389         0.101084      0.421518      0.009663
H     15.10445      7.64558     10.62451        -0.100144      0.619065      0.193205
H      5.87395     13.33282     10.62451         0.011764     -0.911317      0.099631
H     15.10445     13.33282     10.35389        -0.194595     -0.384841      0.027905
H      5.87395     10.35389      7.64558         0.285585      0.051787      0.364726
H     15.10445     10.62451      7.64558        -0.131431     -0.141379      0.587008
H      5.87395     10.62451     13.33282        -0.054547      0.426920     -0.706577
H     15.10445     10.35389     13.33282         0.173213     -0.438429     -0.907962
H     10.35389      7.64558      5.87395         0.016980      0.506117      0.355375
H     10.62451      7.64558     15.10445         0.229552      0.664714     -0.102587
H     10.62451     13.33282      5.87395         0.069810     -0.555464      0.207090
H     10.35389     13.33282     15.10445         0.064414     -0.349851     -0.124052
H      7.64558      5.87395     10.35389         0.410327      0.133713      0.059118
H      7.64558     15.10445     10.62451         0.388981     -0.129696      0.207522
H     13.33282      5.87395     10.62451        -0.311375      0.125524     -0.015448
H     13.33282     15.10445     10.35389        -0.644136     -0.182986      0.201189
H     12.45634     12.45634     19.01126         0.261260      0.268075     -0.222608
H     19.01126     19.01126     19.01126        -0.249456     -0.269958     -0.236691
H     19.01126     12.45634     12.45634        -0.242236      0.268572      0.242112
H     12.45634     19.01126     12.45634         0.294545     -0.225796      0.236943
C     10.35284      5.61067      6.59456         0.385705     -0.313250     -1.190579
C     10.62556     15.36773      6.59456        -0.220304      0.648211     -0.546243
C     10.62556      5.61067     14.38384         0.342434     -0.279328      0.762636
C     10.35284     15.36773     14.38384        -0.199504      0.351050      0.937504
C      6.59456     10.35284      5.61067        -1.229218      0.016952     -0.214099
C      6.59456     10.62556     15.36773        -0.644447      0.063855      0.369246
C     14.38384     10.62556      5.61067         1.355465     -0.137673     -0.612712
C     14.38384     10.35284     15.36773         0.324473     -0.130595      0.420978
C      5.61067      6.59456     10.35284        -0.269564     -0.610398     -0.010742
C     15.36773      6.59456     10.62556         0.359118     -0.891103     -0.149647
C      5.61067     14.38384     10.62556        -0.183832      1.038470     -0.270131
C     15.36773     14.38384     10.35284         0.457997      0.797132     -0.084416
C      5.61067     10.35284      6.59456        -0.286805     -0.110400     -0.576573
C     15.36773     10.62556      6.59456         0.290723      0.120021     -0.523257
C      5.61067     10.62556     14.38384        -0.294168     -0.152024      1.243168
C     15.36773     10.35284     14.38384         0.172394      0.143391      1.233375
C     10.35284      6.59456      5.61067        -0.041021     -0.692869     -0.422180
C     10.62556      6.59456     15.36773        -0.041415     -0.798409      0.377804
C     10.62556     14.38384      5.61067        -0.457414      0.390494     -0.778905
C     10.35284     14.38384     15.36773        -0.163620      0.657868      0.501376
C      6.59456      5.61067     10.35284        -0.545019     -0.320103      0.033675
C      6.59456     15.36773     10.62556        -0.282839      0.496565      0.085453
C     14.38384      5.61067     10.62556         0.398219     -0.333130      0.053114
C     14.38384     15.36773     10.35284         1.058292      0.373877     -0.112707
C     10.40319      3.19606      7.29314        -0.012147      0.905153     -0.366726
C     10.35913      4.25547      6.23373         0.047279     -0.384682      0.288579
C      0.08601      7.29314      7.29314        -0.016485     -0.517329     -0.500059
C      0.13007      6.23373      6.23373        -0.081894      0.822183      0.044879
C      0.08601      3.19606      3.19606        -0.009878      0.653510      0.270623
C      0.13007      4.25547      4.25547         0.070241     -0.243987     -0.618088
C     10.40319      7.29314      3.19606        -0.046650     -1.076207      0.775442
C     10.35913      6.23373      4.25547        -0.038374      0.348325     -0.228845
C      7.29314     10.40319      3.19606        -0.997746     -0.053892      0.281410
C      6.23373     10.35913      4.25547         0.375589      0.110076     -0.518003
C      7.29314      0.08601      7.29314        -0.744865      0.018996     -0.372421
C      6.23373      0.13007      6.23373         0.172567      0.087385      0.119956
C      3.19606      0.08601      3.19606         0.623201      0.008433      0.177556
C      4.25547      0.13007      4.25547        -0.209679     -0.087893     -0.285029
C      3.19606     10.40319      7.29314         0.500280     -0.035042     -0.956290
C      4.25547     10.35913      6.23373        -0.142981     -0.014004      0.162133
C      3.19606      7.29314     10.40319         0.670969     -0.412933      0.006349
C      4.25547      6.23373     10.35913        -0.112405      0.173875      0.000027
C      7.29314      7.29314      0.08601        -0.410871     -0.300659     -0.019475
C      6.23373      6.23373      0.13007         0.218799      0.120890     -0.138855
C      3.19606      3.19606      0.08601         0.322853      0.541482     -0.022426
C      4.25547      4.25547      0.13007        -0.435564     -0.286552     -0.007210
C      7.29314      3.19606     10.40319        -0.278003      0.626158     -0.000637
C      6.23373      4.25547     10.35913         0.017741     -0.160034      0.021591
O     10.43466      3.58206      8.50569        -0.034770      0.038477      0.242518
O     10.54374     17.39634      8.50569         0.061761     -0.070181      0.510341
O     10.54374      3.58206     12.47271         0.031894      0.111261     -0.434268
O     10.43466     17.39634     12.47271         0.082280     -0.052032     -0.497868
O      8.50569     10.43466      3.58206         0.670518     -0.079780      0.045910
O      8.50569     10.54374     17.39634         0.753566      0.083241     -0.116903
O     12.47271     10.54374      3.58206        -0.605011      0.122783      0.208324
O     12.47271     10.43466     17.39634        -0.355778     -0.000372      0.034487
O      3.58206      8.50569     10.43466         0.022352      0.445496     -0.075501
O     17.39634      8.50569     10.54374        -0.082609      0.442180      0.047470
O      3.58206     12.47271     10.54374         0.129360     -0.613351     -0.004045
O     17.39634     12.47271     10.43466        -0.233834     -0.745865     -0.013394
O      3.58206     10.43466      8.50569         0.178883     -0.043833      0.800170
O     17.39634     10.54374      8.50569         0.001333      0.039630      0.322049
O      3.58206     10.54374     12.47271         0.002339      0.003630     -0.290824
O     17.39634     10.43466     12.47271        -0.023117      0.001826     -0.331128
O     10.43466      8.50569      3.58206        -0.110399      0.538338     -0.081907
O     10.54374      8.50569     17.39634         0.055734      0.599006     -0.076884
O     10.54374     12.47271      3.58206         0.100006     -0.593953      0.113426
O     10.43466     12.47271     17.39634        -0.049556     -0.840624     -0.310069
O      8.50569      3.58206     10.43466         0.372199      0.021151     -0.061018
O      8.50569     17.39634     10.54374         0.594951     -0.140086      0.052626
O     12.47271      3.58206     10.54374        -0.507925      0.121484      0.027822
O     12.47271     17.39634     10.43466        -0.620227     -0.099378      0.049920
O     11.90042     11.90042     19.56718        -0.273078     -0.281635      0.222897
O     19.56718     19.56718     19.56718         0.297856      0.315282      0.289616
O     19.56718     11.90042     11.90042         0.273535     -0.313946     -0.249155
O     11.90042     19.56718     11.90042        -0.315153      0.214864     -0.204638
O      9.45224      1.03696      9.45224        -0.117865      0.142797     -0.043608
O      1.03696      9.45224      9.45224         0.148043     -0.140473     -0.044767
O      1.03696      1.03696      1.03696         0.078400      0.079984      0.083577
O      9.45224      9.45224      1.03696        -0.083115     -0.127075      0.141438
Zr     10.48920      2.52580     10.48920         0.041532     -0.159983      0.164505
Zr     10.48920     18.45260     10.48920        -0.178990      0.234330     -0.388743
Zr     10.48920     10.48920      2.52580         0.125497      0.368492     -0.276342
Zr     10.48920     10.48920     18.45260        -0.019791     -0.265144      0.296815
Zr      2.52580     10.48920     10.48920        -0.309910      0.091461      0.252453
Zr     18.45260     10.48920     10.48920         0.187690     -0.154351     -0.040842
Pd      9.32245     14.39484      9.19690         0.008303      0.036303     -0.026511
Pd      8.58324     13.70153     13.10179        -0.022360     -0.008611      0.054495
Pd     12.03763     14.35632      8.83883        -0.070316      0.009056      0.041698
Pd     12.57051     12.82947     10.87266        -0.153483      0.055597     -0.136028
Pd     12.09489      7.13319     12.54373         0.010697      0.026468      0.018650
Pd     11.03327     15.08061     11.33757         0.034205      0.024417      0.010573
Pd      9.90575     12.72754     11.00144         0.014041     -0.011343      0.003134
Pd     13.55520     12.24723      8.05384         0.065969      0.086051     -0.016704
Pd     11.53809     11.64278      6.14853         0.038204      0.029924     -0.019679
Pd      7.89097      8.18635      7.49382        -0.076649      0.008311     -0.044320
Pd      8.71746     11.79304      6.83371         0.015991     -0.014881     -0.009616
Pd     10.09797      9.53510      8.22713        -0.034751      0.062889     -0.057642
Pd      8.50102     14.50373      6.69531        -0.098507     -0.023111     -0.105641
Pd     12.31541      9.23624      6.94793         0.009321      0.063354      0.012112
Pd      9.81150      9.63180      5.59769         0.082428      0.066434      0.003506
Pd      6.93352      9.44635     12.24303        -0.039833     -0.074017     -0.086447
Pd     12.28028      6.75375      7.89375        -0.013110     -0.143765      0.036032
Pd      5.87869     10.47719      9.82350        -0.065517      0.014501      0.005063
Pd      7.53077      7.05475     13.27051         0.018110     -0.025496     -0.012745
Ir     11.52421      9.68556     13.10697        -0.014611     -0.010056      0.031510
Ir     13.39163      9.18104     11.50426        -0.030441     -0.053088      0.070558
Ir      9.22739      8.83244     14.01009        -0.010695     -0.003691      0.037460
Ir     10.38588     10.78020     15.15457         0.004141     -0.037934     -0.089570
Ir      7.28219     12.00698     11.43539        -0.073541     -0.015571      0.001097
Ir     14.59685     11.06589     10.40984        -0.031113      0.056176      0.005280
Ir     12.26796     10.53594      9.52578        -0.011428     -0.107439     -0.031084
Ir      8.92021     11.08580     12.98319        -0.046217     -0.063351      0.053071
Ir     10.09096      9.99268     10.99691         0.016287     -0.005179     -0.095426
Ir     13.48529     11.40008     12.73634         0.090479     -0.011456     -0.020840
Ir     11.21803     12.22947     13.17960         0.094261     -0.064661      0.076757
Ir      8.38812     11.22319      9.32574        -0.007059      0.137539      0.017231
Ir     11.56108      8.02587     10.04582         0.000937      0.017268      0.027484
Ir      7.15072     13.13684      8.57161        -0.008141      0.044738      0.022465
Ir      9.49453      6.98248      9.24805        -0.045773     -0.089531     -0.020480
Ir      8.00078      8.83202     10.00700        -0.012821      0.013381      0.064902
Ir     10.72139     12.12684      8.52482        -0.061977      0.049620      0.095506
Ir      9.52044      7.68643     11.74439        -0.021003     -0.051853     -0.025562
Ir     13.84493      8.60335      9.03844         0.018229      0.000920      0.022825
