152
# total energy = -1060.08029140 eVH     10.35389      5.87395      7.64558        -0.280809      0.042819      1.129265
H     10.62451     15.10445      7.64558         0.075509     -0.085330      0.930620
H     10.62451      5.87395     13.33282        -0.259015      0.074229     -0.787621
H     10.35389     15.10445     13.33282         0.090056     -0.303916     -0.866164
H      7.64558     10.35389      5.87395         0.932723     -0.135458      0.187401
H      7.64558     10.62451     15.10445         0.328562     -0.037022     -0.072173
H     13.33282     10.62451      5.87395        -0.860970      0.193355      0.208095
H     13.33282     10.35389     15.10445        -0.277342     -0.014415     -0.068582
H      5.87395      7.64558     10.35389         0.088608      0.418496     -0.009802
H     15.10445      7.64558     10.62451        -0.001375      0.487067     -0.038789
H      5.87395     13.33282     10.62451        -0.013892     -0.961106      0.082482
H     15.10445     13.33282     10.35389        -0.079362     -0.319704      0.002326
H      5.87395     10.35389      7.64558         0.285039      0.110552      0.403366
H     15.10445     10.62451      7.64558        -0.122406     -0.174554      0.667321
H      5.87395     10.62451     13.33282        -0.082055      0.461919     -0.617508
H     15.10445     10.35389     13.33282         0.245261     -0.624567     -0.830002
H     10.35389      7.64558      5.87395        -0.041633      0.486461      0.336556
H     10.62451      7.64558     15.10445         0.271527      0.790711     -0.022333
H     10.62451     13.33282      5.87395         0.128479     -0.572748      0.207515
H     10.35389     13.33282     15.10445         0.035988     -0.286689     -0.148926
H      7.64558      5.87395     10.35389         0.347032      0.101005      0.033474
H      7.64558     15.10445     10.62451         0.380717     -0.119394      0.167662
H     13.33282      5.87395     10.62451        -0.313724      0.131098     -0.027287
H     13.33282     15.10445     10.35389        -0.655392     -0.122121      0.144397
H     12.45634     12.45634     19.01126         0.256017      0.271378     -0.228432
H     19.01126     19.01126     19.01126        -0.246338     -0.268208     -0.245760
H     19.01126     12.45634     12.45634        -0.250905      0.269959      0.235465
H     12.45634     19.01126     12.45634         0.290287     -0.235727      0.234595
C     10.35284      5.61067      6.59456         0.399868     -0.417497     -1.424586
C     10.62556     15.36773      6.59456        -0.151690      0.587423     -0.646317
C     10.62556      5.61067     14.38384         0.380851     -0.337030      0.824608
C     10.35284     15.36773     14.38384        -0.223412      0.216853      1.079925
C      6.59456     10.35284      5.61067        -1.382082      0.022774     -0.232153
C      6.59456     10.62556     15.36773        -0.646030      0.063480      0.366315
C     14.38384     10.62556      5.61067         1.302446     -0.167421     -0.634505
C     14.38384     10.35284     15.36773         0.353253     -0.123907      0.354937
C      5.61067      6.59456     10.35284        -0.287274     -0.656850     -0.022080
C     15.36773      6.59456     10.62556         0.418341     -0.958267      0.038156
C      5.61067     14.38384     10.62556        -0.136506      1.165402     -0.188160
C     15.36773     14.38384     10.35284         0.473727      0.655139     -0.026388
C      5.61067     10.35284      6.59456        -0.374925     -0.099374     -0.733777
C     15.36773     10.62556      6.59456         0.409746      0.117592     -0.738594
C      5.61067     10.62556     14.38384        -0.387202     -0.170859      1.230407
C     15.36773     10.35284     14.38384         0.266938      0.190278      1.466181
C     10.35284      6.59456      5.61067        -0.055535     -0.727190     -0.599970
C     10.62556      6.59456     15.36773        -0.118113     -0.909667      0.353155
C     10.62556     14.38384      5.61067        -0.473466      0.405145     -0.715171
C     10.35284     14.38384     15.36773        -0.160216      0.634559      0.427511
C      6.59456      5.61067     10.35284        -0.519988     -0.336685      0.023352
C      6.59456     15.36773     10.62556        -0.378479      0.450083      0.058239
C     14.38384      5.61067     10.62556         0.445258     -0.363947      0.000866
C     14.38384     15.36773     10.35284         1.123180      0.502369     -0.072205
C     10.40319      3.19606      7.29314        -0.001744      0.689645     -0.335748
C     10.35913      4.25547      6.23373         0.010387     -0.424083      0.289526
C      0.08601      7.29314      7.29314        -0.015039     -0.363198     -0.504947
C      0.13007      6.23373      6.23373        -0.066883      0.864000      0.068450
C      0.08601      3.19606      3.19606        -0.003471      0.684103      0.265701
C      0.13007      4.25547      4.25547         0.032957     -0.269564     -0.541813
C     10.40319      7.29314      3.19606        -0.067170     -1.150184      0.580384
C     10.35913      6.23373      4.25547        -0.038273      0.363621     -0.196188
C      7.29314     10.40319      3.19606        -1.082762     -0.056918      0.192482
C      6.23373     10.35913      4.25547         0.365965      0.085389     -0.540558
C      7.29314      0.08601      7.29314        -0.429614      0.033840     -0.524832
C      6.23373      0.13007      6.23373         0.184025      0.128048      0.128696
C      3.19606      0.08601      3.19606         0.696904      0.025602      0.166953
C      4.25547      0.13007      4.25547        -0.172960     -0.049719     -0.356720
C      3.19606     10.40319      7.29314         0.381982     -0.025421     -0.897512
C      4.25547     10.35913      6.23373        -0.152033     -0.077066      0.099142
C      3.19606      7.29314     10.40319         0.604424     -0.397046      0.002567
C      4.25547      6.23373     10.35913        -0.112650      0.183668      0.001829
C      7.29314      7.29314      0.08601        -0.413241     -0.315227     -0.015337
C      6.23373      6.23373      0.13007         0.178021      0.187377     -0.061687
C      3.19606      3.19606      0.08601         0.289332      0.480617     -0.024360
C      4.25547      4.25547      0.13007        -0.402703     -0.230000     -0.036385
C      7.29314      3.19606     10.40319        -0.277669      0.591191     -0.010828
C      6.23373      4.25547     10.35913         0.006502     -0.107497      0.019940
O     10.43466      3.58206      8.50569        -0.027635      0.092042      0.318934
O     10.54374     17.39634      8.50569         0.062819     -0.130723      0.596500
O     10.54374      3.58206     12.47271         0.027706      0.105862     -0.392750
O     10.43466     17.39634     12.47271         0.090785     -0.047989     -0.388385
O      8.50569     10.43466      3.58206         0.712763     -0.063068      0.013474
O      8.50569     10.54374     17.39634         0.478459      0.057530     -0.078883
O     12.47271     10.54374      3.58206        -0.650776      0.115121      0.205359
O     12.47271     10.43466     17.39634        -0.283973     -0.002468      0.022093
O      3.58206      8.50569     10.43466         0.039915      0.459400     -0.067450
O     17.39634      8.50569     10.54374        -0.057955      0.452845      0.056575
O      3.58206     12.47271     10.54374         0.113203     -0.584360      0.002002
O     17.39634     12.47271     10.43466        -0.171868     -0.739941     -0.056367
O      3.58206     10.43466      8.50569         0.211982     -0.062022      0.788360
O     17.39634     10.54374      8.50569        -0.102347      0.076404      0.561825
O      3.58206     10.54374     12.47271        -0.001248     -0.003161     -0.267245
O     17.39634     10.43466     12.47271         0.038735     -0.012449     -0.223890
O     10.43466      8.50569      3.58206        -0.104829      0.568096     -0.111783
O     10.54374      8.50569     17.39634         0.066911      0.503559     -0.088472
O     10.54374     12.47271      3.58206         0.104936     -0.627682      0.133812
O     10.43466     12.47271     17.39634        -0.061384     -0.656142     -0.255251
O      8.50569      3.58206     10.43466         0.395949      0.026587     -0.036630
O      8.50569     17.39634     10.54374         0.632453     -0.154940      0.047881
O     12.47271      3.58206     10.54374        -0.508977      0.125987      0.034731
O     12.47271     17.39634     10.43466        -0.621958     -0.132763      0.040016
O     11.90042     11.90042     19.56718        -0.274676     -0.307692      0.232327
O     19.56718     19.56718     19.56718         0.303997      0.319504      0.299696
O     19.56718     11.90042     11.90042         0.285167     -0.325231     -0.232419
O     11.90042     19.56718     11.90042        -0.316159      0.229527     -0.202524
O      9.45224      1.03696      9.45224        -0.081734      0.083835     -0.071032
O      1.03696      9.45224      9.45224         0.100991     -0.114883     -0.049415
O      1.03696      1.03696      1.03696         0.083495      0.055029      0.097642
O      9.45224      9.45224      1.03696        -0.059999     -0.131588      0.131306
Zr     10.48920      2.52580     10.48920         0.032698     -0.087295      0.083690
Zr     10.48920     18.45260     10.48920        -0.173031      0.259991     -0.348028
Zr     10.48920     10.48920      2.52580         0.117731      0.356071     -0.348267
Zr     10.48920     10.48920     18.45260        -0.083527     -0.213933      0.194507
Zr      2.52580     10.48920     10.48920        -0.253136      0.129950      0.231556
Zr     18.45260     10.48920     10.48920         0.223062     -0.116253     -0.000132
Pd      9.39446     14.26443      9.36122         0.000689      0.030800     -0.041096
Pd      8.60983     13.69021     12.98564        -0.008469     -0.018074      0.033185
Pd     12.03576     14.41296      8.73707         0.006364     -0.005464      0.002471
Pd     12.77729     12.82673     10.62796        -0.027627      0.008730      0.026192
Pd     12.14098      7.12609     12.62586        -0.008333     -0.000017      0.002233
Pd     11.21500     14.83603     11.50471        -0.020819      0.026446     -0.029112
Pd     10.08286     12.49736     11.11728        -0.040890      0.044375     -0.029531
Pd     13.48312     12.13186      7.97840         0.004749      0.012812      0.009137
Pd     11.47994     11.55603      6.11179         0.006633      0.002292     -0.003741
Pd      7.86464      8.55278      7.53919         0.012094     -0.048180     -0.007137
Pd      8.73607     11.73292      6.88280        -0.010404      0.012964     -0.014693
Pd     10.31398      9.46634      8.14639        -0.005433     -0.003997     -0.002081
Pd      8.51033     14.43839      6.84544        -0.012976      0.014841     -0.037287
Pd     12.36523      9.02842      6.57713         0.003017      0.005486      0.013215
Pd      9.74216      9.60900      5.55582        -0.002099      0.008240     -0.001091
Pd      6.86102      9.45425     12.18393        -0.013592     -0.005637     -0.009747
Pd     12.20671      6.69336      7.88236        -0.001661      0.013077      0.015148
Pd      5.94775     10.46241      9.72273        -0.015560     -0.007752      0.000354
Pd      7.57686      7.14750     13.28563         0.001608      0.025960      0.049460
Ir     11.79523      9.71291     13.05624        -0.033461     -0.004980     -0.000543
Ir     13.57683      8.99349     11.44458        -0.013158      0.018435      0.003938
Ir      9.43218      8.82873     13.90462        -0.014893      0.000652      0.058267
Ir     10.55999     10.94155     14.86812        -0.011463     -0.017591      0.045161
Ir      7.28705     12.02342     11.36629        -0.010799     -0.010843     -0.009988
Ir     14.69288     10.83638     10.09485        -0.015735      0.026688      0.041532
Ir     12.19435     10.49650      9.66631         0.004615      0.002264     -0.016114
Ir      8.77768     11.02734     13.01279         0.003117     -0.004100     -0.011306
Ir     10.13929      9.86214     11.21266        -0.008349      0.035286     -0.037783
Ir     13.76856     11.36500     12.41077        -0.034076      0.013675      0.049338
Ir     11.65689     12.30765     13.10335        -0.069281     -0.010496     -0.002466
Ir      8.52849     11.07777      9.37958        -0.020276      0.015800     -0.024274
Ir     11.59435      7.97857     10.07870         0.016459      0.028326      0.007524
Ir      7.23835     13.00470      8.69720         0.014215      0.025720     -0.002164
Ir      9.51652      7.00147      9.11631         0.011474     -0.016728      0.042363
Ir      8.06533      8.74861     10.09640        -0.012500      0.016649     -0.015778
Ir     10.75651     12.09820      8.53468        -0.010701      0.008085     -0.020226
Ir      9.55858      7.46028     11.67130        -0.012984      0.062503      0.051973
Ir     13.68881      8.71575      8.80141        -0.001607      0.019321      0.025638
