152
# total energy = -1110.37418601 eVH     10.35389      5.87395      7.64558        -0.351559     -0.144962      1.058494
H     10.62451     15.10445      7.64558         0.367966      0.084993      0.944300
H     10.62451      5.87395     13.33282        -0.317520     -0.702905     -1.392983
H     10.35389     15.10445     13.33282        -0.623829      0.404042     -0.326209
H      7.64558     10.35389      5.87395         0.540659     -0.532395     -0.085402
H      7.64558     10.62451     15.10445         0.369018     -0.240952      0.043895
H     13.33282     10.62451      5.87395        -0.545252      0.624912     -0.027796
H     13.33282     10.35389     15.10445        -0.527912      0.409767      0.161855
H      5.87395      7.64558     10.35389         0.146118      0.522906      0.034784
H     15.10445      7.64558     10.62451         0.430273      0.921323      0.261493
H      5.87395     13.33282     10.62451        -0.225523     -0.468643      0.362851
H     15.10445     13.33282     10.35389         0.030049     -0.306243     -0.387721
H      5.87395     10.35389      7.64558        -0.076146     -0.361564      1.436016
H     15.10445     10.62451      7.64558         0.211090      0.450634      1.285929
H      5.87395     10.62451     13.33282        -0.174899     -0.351532     -1.161455
H     15.10445     10.35389     13.33282         0.556482      0.909719     -1.515742
H     10.35389      7.64558      5.87395        -0.543044      0.501923     -0.184826
H     10.62451      7.64558     15.10445        -0.140013      0.516481      0.188312
H     10.62451     13.33282      5.87395         0.891449     -1.387493     -0.324127
H     10.35389     13.33282     15.10445         0.267625     -0.553848     -0.082233
H      7.64558      5.87395     10.35389         0.717337      0.174010     -0.150025
H      7.64558     15.10445     10.62451         1.978756      0.790950      0.206940
H     13.33282      5.87395     10.62451        -2.687112     -0.960299     -0.455815
H     13.33282     15.10445     10.35389        -0.875116     -0.046137     -0.250920
H     12.45634     12.45634     19.01126         0.271763      0.258157     -0.227122
H     19.01126     19.01126     19.01126        -0.266890     -0.254521     -0.238114
H     19.01126     12.45634     12.45634        -0.282930      0.281342      0.187168
H     12.45634     19.01126     12.45634         0.255843     -0.251147      0.236219
C     10.35284      5.61067      6.59456         0.088255     -0.501898     -1.241336
C     10.62556     15.36773      6.59456         0.166700      0.763764     -0.828272
C     10.62556      5.61067     14.38384         0.179206     -0.320923      1.810670
C     10.35284     15.36773     14.38384         0.110879      0.389561      1.807761
C      6.59456     10.35284      5.61067        -1.127608     -0.110244     -0.857557
C      6.59456     10.62556     15.36773        -0.688458     -0.102920      0.754274
C     14.38384     10.62556      5.61067         0.871745     -0.111466     -1.001143
C     14.38384     10.35284     15.36773         1.202249      0.165886      1.101958
C      5.61067      6.59456     10.35284        -0.677568     -0.844579     -0.173291
C     15.36773      6.59456     10.62556         1.964430     -0.231994     -0.181277
C      5.61067     14.38384     10.62556        -1.577633     -0.005298     -0.121951
C     15.36773     14.38384     10.35284         0.486531      0.064609      0.020731
C      5.61067     10.35284      6.59456        -0.276556      0.196396     -1.344764
C     15.36773     10.62556      6.59456         0.282388     -0.220764     -1.001084
C      5.61067     10.62556     14.38384        -0.267700      0.407242      1.437651
C     15.36773     10.35284     14.38384         0.057748     -0.436076      1.916349
C     10.35284      6.59456      5.61067        -0.188193     -0.898502     -0.686335
C     10.62556      6.59456     15.36773        -0.105129     -0.780673      1.053844
C     10.62556     14.38384      5.61067        -0.492665      2.027402     -0.783063
C     10.35284     14.38384     15.36773        -0.284135      1.441524      0.482182
C      6.59456      5.61067     10.35284        -0.964863     -0.411858      0.082599
C      6.59456     15.36773     10.62556        -1.315859      0.366835     -0.329771
C     14.38384      5.61067     10.62556         1.287191     -1.216785      0.174666
C     14.38384     15.36773     10.35284         0.425939      0.316267      0.065143
C     10.40319      3.19606      7.29314         0.002329      0.309366     -0.101384
C     10.35913      4.25547      6.23373         0.138357     -0.526163      0.021525
C      0.08601      7.29314      7.29314        -0.053409     -0.302012     -0.426673
C      0.13007      6.23373      6.23373        -0.124337      0.714355      0.034023
C      0.08601      3.19606      3.19606        -0.108144      1.627477      0.172933
C      0.13007      4.25547      4.25547        -0.084555     -0.403584     -1.239607
C     10.40319      7.29314      3.19606         0.016736     -0.428718      0.126903
C     10.35913      6.23373      4.25547         0.260265      0.082265     -0.500331
C      7.29314     10.40319      3.19606        -1.662996      0.007270      0.325333
C      6.23373     10.35913      4.25547         0.652494      0.076347     -0.607196
C      7.29314      0.08601      7.29314        -0.402018     -0.011292     -0.303535
C      6.23373      0.13007      6.23373         0.662289     -0.053911      0.268215
C      3.19606      0.08601      3.19606         0.658457     -0.015927      0.187656
C      4.25547      0.13007      4.25547        -0.374684     -0.070575     -0.514960
C      3.19606     10.40319      7.29314         0.372483      0.019178     -0.316275
C      4.25547     10.35913      6.23373        -0.722254      0.064386      0.367596
C      3.19606      7.29314     10.40319         0.297938     -0.214298     -0.006268
C      4.25547      6.23373     10.35913         0.048921      0.647829      0.092497
C      7.29314      7.29314      0.08601        -0.716940     -0.600734     -0.018942
C      6.23373      6.23373      0.13007         0.848138      1.133833     -0.075217
C      3.19606      3.19606      0.08601         0.812525      0.497653      0.010223
C      4.25547      4.25547      0.13007        -0.321989     -1.733098     -0.127799
C      7.29314      3.19606     10.40319        -0.331530      0.277145     -0.003221
C      6.23373      4.25547     10.35913         0.513399     -0.030281      0.230631
O     10.43466      3.58206      8.50569        -0.047978      0.182489      0.259079
O     10.54374     17.39634      8.50569         0.041820     -0.231641      0.484942
O     10.54374      3.58206     12.47271         0.084461     -0.060069     -0.039683
O     10.43466     17.39634     12.47271        -0.023402     -0.139967     -0.276929
O      8.50569     10.43466      3.58206         0.980994      0.184327      0.387379
O      8.50569     10.54374     17.39634         0.569694      0.084490     -0.227255
O     12.47271     10.54374      3.58206        -0.428156     -0.038026      0.188535
O     12.47271     10.43466     17.39634        -0.519788     -0.069764     -0.197689
O      3.58206      8.50569     10.43466         0.181138      0.435579     -0.030231
O     17.39634      8.50569     10.54374        -0.229550      0.713708      0.043619
O      3.58206     12.47271     10.54374         0.159684     -0.670912      0.025084
O     17.39634     12.47271     10.43466        -0.185404     -0.481102     -0.012301
O      3.58206     10.43466      8.50569         0.221733     -0.059182      0.401088
O     17.39634     10.54374      8.50569        -0.170895      0.037028      0.411149
O      3.58206     10.54374     12.47271         0.145182      0.021445     -0.306159
O     17.39634     10.43466     12.47271         0.068747     -0.049711     -0.086194
O     10.43466      8.50569      3.58206        -0.000210      0.278786      0.180770
O     10.54374      8.50569     17.39634         0.070760      0.438713     -0.181177
O     10.54374     12.47271      3.58206        -0.222315     -0.965767      0.346866
O     10.43466     12.47271     17.39634        -0.084449     -0.448434     -0.244592
O      8.50569      3.58206     10.43466         0.496215      0.196182     -0.012343
O      8.50569     17.39634     10.54374         0.660127     -0.196189      0.022497
O     12.47271      3.58206     10.54374        -0.739154      0.278836      0.036671
O     12.47271     17.39634     10.43466        -0.440130     -0.201134     -0.044043
O     11.90042     11.90042     19.56718        -0.345732     -0.307050      0.259421
O     19.56718     19.56718     19.56718         0.325409      0.311631      0.282550
O     19.56718     11.90042     11.90042         0.277633     -0.277042     -0.140801
O     11.90042     19.56718     11.90042        -0.306633      0.287561     -0.233757
O      9.45224      1.03696      9.45224        -0.058079      0.071976     -0.047329
O      1.03696      9.45224      9.45224         0.035686     -0.072733     -0.072107
O      1.03696      1.03696      1.03696         0.057507      0.140138      0.103792
O      9.45224      9.45224      1.03696        -0.132914     -0.089350      0.103796
Zr     10.48920      2.52580     10.48920         0.149055     -0.165623     -0.162129
Zr     10.48920     18.45260     10.48920        -0.095399      0.180165     -0.043800
Zr     10.48920     10.48920      2.52580         0.328400     -0.308727     -0.197362
Zr     10.48920     10.48920     18.45260         0.004240     -0.085064      0.206871
Zr      2.52580     10.48920     10.48920        -0.066238      0.168015     -0.051590
Zr     18.45260     10.48920     10.48920         0.138417     -0.124592     -0.248343
Ir     12.05348     12.48556     10.46113        -0.020236      0.009590      0.022544
Ir     11.18003      7.41705     10.30854         0.020499     -0.001055     -0.034725
Ir      8.82464      7.37931     11.57263         0.015507     -0.016032     -0.016975
Ir      7.48587     11.65984      7.65882        -0.005201     -0.006541      0.002888
Ir     11.59433     12.09212      7.12473        -0.004049     -0.015723     -0.013524
Ir     13.75239      8.98540      7.55507         0.013411      0.002552     -0.006049
Ir     12.49417     13.95494      8.42055        -0.010064      0.008846     -0.004691
Ir      9.72041     11.26594      5.56706         0.014998     -0.006785     -0.006767
Ir      9.08323     13.47226      7.07671        -0.005529     -0.014280      0.000899
Ir      9.28290      9.66330      7.52928        -0.004612      0.004663     -0.010192
Ir     13.26902      7.03822     11.95663         0.016455     -0.004986     -0.008751
Ir     13.57485      7.03346      9.11909         0.024734      0.004854     -0.005681
Ir     11.02917      7.60386     12.85210         0.005416     -0.007425     -0.010913
Ir     13.61184     11.56121      8.75567         0.005857     -0.002067     -0.004955
Ir     11.50366      9.65325      6.23675        -0.001307     -0.004638     -0.005719
Ir      7.14811      9.18284      8.94219         0.004455     -0.015104     -0.009552
Ir     14.06232     11.42627     11.66090        -0.002203      0.007277     -0.001507
Ir     11.65201      9.86399      8.89518         0.006120     -0.019616     -0.011358
Ir      9.42941      9.52205     10.24913         0.008828     -0.005338     -0.013840
Ir     13.86095      9.39988     10.18785         0.011783      0.008447     -0.007055
Ir     13.80843      9.15552     12.90882         0.019225      0.013414     -0.005692
Ir     11.68572      9.76437     11.56895         0.014567      0.000733     -0.009543
Ir      9.90995     11.75303      8.97647        -0.002066     -0.019628     -0.004160
Ir      9.05654      7.43628      8.83399         0.024823     -0.001391     -0.023391
Ir     11.54142      7.57801      7.78099         0.041890     -0.020849     -0.016622
Ir      9.24879      9.49696     13.01935         0.006960     -0.015855     -0.000944
Ir      7.52460     13.91871      8.99424        -0.007996     -0.012223      0.000658
Ir     10.89664     14.11897     11.95004        -0.010355     -0.024639     -0.012020
Ir     10.12378     14.16855      9.52354        -0.006961     -0.008749      0.004109
Ir      9.79706     11.70139     11.72783         0.000560     -0.001907      0.001489
Ir      7.58744     11.59069     10.21398         0.002386     -0.014661     -0.003403
Ir      8.36625     13.76290     11.58747        -0.008476     -0.017502     -0.000040
Ir      7.52739     11.58880     12.83128         0.000553     -0.022434     -0.002185
Ir      9.76805     11.63110     14.34340         0.001769     -0.015601      0.006016
Ir     13.49303     13.87891     12.19241        -0.017641      0.000473     -0.000460
Ir     11.99643     12.05514     13.08533        -0.002911      0.003027     -0.013089
Ir     11.57054      9.81422     14.20900         0.008383     -0.016018     -0.008136
Ir      7.14386      9.39037     11.50329         0.004899     -0.022353     -0.006838
