152
# total energy = -1110.39351848 eVH     10.35389      5.87395      7.64558        -0.389840     -0.129550      1.155160
H     10.62451     15.10445      7.64558         0.326252      0.077616      0.917639
H     10.62451      5.87395     13.33282        -0.318667     -0.676098     -1.335212
H     10.35389     15.10445     13.33282        -0.585110      0.430017     -0.334904
H      7.64558     10.35389      5.87395         0.558335     -0.520158     -0.101602
H      7.64558     10.62451     15.10445         0.386333     -0.233878      0.043389
H     13.33282     10.62451      5.87395        -0.582047      0.647901     -0.049759
H     13.33282     10.35389     15.10445        -0.524958      0.385420      0.152715
H      5.87395      7.64558     10.35389         0.149288      0.557441      0.027387
H     15.10445      7.64558     10.62451         0.428064      1.025881      0.286437
H      5.87395     13.33282     10.62451        -0.220636     -0.504561      0.361990
H     15.10445     13.33282     10.35389         0.027867     -0.299058     -0.379733
H      5.87395     10.35389      7.64558        -0.105023     -0.414681      1.490886
H     15.10445     10.62451      7.64558         0.219870      0.517466      1.328680
H      5.87395     10.62451     13.33282        -0.219376     -0.370672     -1.207400
H     15.10445     10.35389     13.33282         0.613216      1.005175     -1.533490
H     10.35389      7.64558      5.87395        -0.587345      0.532301     -0.172221
H     10.62451      7.64558     15.10445        -0.133299      0.447244      0.155969
H     10.62451     13.33282      5.87395         0.868174     -1.325507     -0.312198
H     10.35389     13.33282     15.10445         0.222902     -0.562552     -0.106954
H      7.64558      5.87395     10.35389         0.721750      0.162862     -0.175338
H      7.64558     15.10445     10.62451         1.980763      0.746533      0.225006
H     13.33282      5.87395     10.62451        -2.651319     -0.900027     -0.517390
H     13.33282     15.10445     10.35389        -0.877514     -0.056890     -0.252510
H     12.45634     12.45634     19.01126         0.271968      0.257860     -0.227437
H     19.01126     19.01126     19.01126        -0.266781     -0.254765     -0.238790
H     19.01126     12.45634     12.45634        -0.284141      0.281752      0.184734
H     12.45634     19.01126     12.45634         0.256511     -0.250614      0.235727
C     10.35284      5.61067      6.59456         0.076742     -0.481396     -1.201492
C     10.62556     15.36773      6.59456         0.192985      0.753788     -0.810778
C     10.62556      5.61067     14.38384         0.179891     -0.294610      1.784655
C     10.35284     15.36773     14.38384         0.084575      0.383125      1.791680
C      6.59456     10.35284      5.61067        -1.138395     -0.110641     -0.898935
C      6.59456     10.62556     15.36773        -0.701933     -0.094460      0.797435
C     14.38384     10.62556      5.61067         0.834941     -0.111601     -0.988867
C     14.38384     10.35284     15.36773         1.175518      0.168392      1.096855
C      5.61067      6.59456     10.35284        -0.668359     -0.903176     -0.189250
C     15.36773      6.59456     10.62556         2.012272     -0.327155     -0.187879
C      5.61067     14.38384     10.62556        -1.568192     -0.013905     -0.142027
C     15.36773     14.38384     10.35284         0.484537      0.091286     -0.000605
C      5.61067     10.35284      6.59456        -0.274597      0.214515     -1.354334
C     15.36773     10.62556      6.59456         0.296596     -0.268052     -0.978619
C      5.61067     10.62556     14.38384        -0.256114      0.448926      1.458183
C     15.36773     10.35284     14.38384         0.000533     -0.491585      1.944305
C     10.35284      6.59456      5.61067        -0.157991     -0.844679     -0.700053
C     10.62556      6.59456     15.36773        -0.118763     -0.712718      1.044437
C     10.62556     14.38384      5.61067        -0.501038      1.985686     -0.751373
C     10.35284     14.38384     15.36773        -0.258137      1.354163      0.503795
C      6.59456      5.61067     10.35284        -0.990739     -0.409361      0.095291
C      6.59456     15.36773     10.62556        -1.253668      0.369150     -0.333289
C     14.38384      5.61067     10.62556         1.269049     -1.303557      0.220846
C     14.38384     15.36773     10.35284         0.458647      0.310024      0.087135
C     10.40319      3.19606      7.29314         0.001143      0.304911     -0.112216
C     10.35913      4.25547      6.23373         0.142221     -0.579899      0.016516
C      0.08601      7.29314      7.29314        -0.053426     -0.278397     -0.419326
C      0.13007      6.23373      6.23373        -0.123715      0.666908      0.016232
C      0.08601      3.19606      3.19606        -0.105516      1.664912      0.165205
C      0.13007      4.25547      4.25547        -0.098105     -0.391441     -1.205153
C     10.40319      7.29314      3.19606         0.015867     -0.451391      0.121387
C     10.35913      6.23373      4.25547         0.264176      0.087174     -0.537501
C      7.29314     10.40319      3.19606        -1.698825      0.011318      0.324845
C      6.23373     10.35913      4.25547         0.671681      0.081129     -0.623732
C      7.29314      0.08601      7.29314        -0.411096     -0.015635     -0.318286
C      6.23373      0.13007      6.23373         0.730505     -0.058692      0.244504
C      3.19606      0.08601      3.19606         0.661276     -0.018557      0.179775
C      4.25547      0.13007      4.25547        -0.355908     -0.086414     -0.574521
C      3.19606     10.40319      7.29314         0.348817      0.023777     -0.320055
C      4.25547     10.35913      6.23373        -0.741890      0.079410      0.362416
C      3.19606      7.29314     10.40319         0.284554     -0.202052     -0.006573
C      4.25547      6.23373     10.35913         0.042075      0.632495      0.091603
C      7.29314      7.29314      0.08601        -0.715457     -0.609868     -0.028325
C      6.23373      6.23373      0.13007         0.903698      1.124193     -0.065233
C      3.19606      3.19606      0.08601         0.824636      0.514841      0.000475
C      4.25547      4.25547      0.13007        -0.325447     -1.768916     -0.130643
C      7.29314      3.19606     10.40319        -0.324504      0.270665     -0.004583
C      6.23373      4.25547     10.35913         0.508755     -0.020567      0.231182
O     10.43466      3.58206      8.50569        -0.048654      0.187338      0.259923
O     10.54374     17.39634      8.50569         0.042280     -0.236691      0.486724
O     10.54374      3.58206     12.47271         0.083944     -0.076542     -0.021733
O     10.43466     17.39634     12.47271        -0.023188     -0.141605     -0.268175
O      8.50569     10.43466      3.58206         0.993496      0.190430      0.376106
O      8.50569     10.54374     17.39634         0.580413      0.084371     -0.229746
O     12.47271     10.54374      3.58206        -0.412892     -0.041072      0.181388
O     12.47271     10.43466     17.39634        -0.505774     -0.067361     -0.192550
O      3.58206      8.50569     10.43466         0.184662      0.422802     -0.028716
O     17.39634      8.50569     10.54374        -0.230417      0.712330      0.046408
O      3.58206     12.47271     10.54374         0.162259     -0.682648      0.026410
O     17.39634     12.47271     10.43466        -0.186839     -0.474599     -0.010258
O      3.58206     10.43466      8.50569         0.231875     -0.061985      0.406673
O     17.39634     10.54374      8.50569        -0.172034      0.037383      0.412842
O      3.58206     10.54374     12.47271         0.148555      0.021429     -0.303930
O     17.39634     10.43466     12.47271         0.082101     -0.051858     -0.069674
O     10.43466      8.50569      3.58206         0.005410      0.273596      0.183913
O     10.54374      8.50569     17.39634         0.069510      0.425508     -0.173811
O     10.54374     12.47271      3.58206        -0.221978     -0.975166      0.328762
O     10.43466     12.47271     17.39634        -0.082047     -0.451279     -0.245392
O      8.50569      3.58206     10.43466         0.488485      0.197505     -0.009759
O      8.50569     17.39634     10.54374         0.664935     -0.204035      0.022407
O     12.47271      3.58206     10.54374        -0.747595      0.280922      0.038393
O     12.47271     17.39634     10.43466        -0.431936     -0.206215     -0.043533
O     11.90042     11.90042     19.56718        -0.347283     -0.307200      0.261174
O     19.56718     19.56718     19.56718         0.324039      0.311644      0.284331
O     19.56718     11.90042     11.90042         0.274318     -0.273389     -0.138035
O     11.90042     19.56718     11.90042        -0.305231      0.282809     -0.233070
O      9.45224      1.03696      9.45224        -0.061570      0.073370     -0.044856
O      1.03696      9.45224      9.45224         0.035791     -0.075834     -0.069860
O      1.03696      1.03696      1.03696         0.064081      0.150864      0.094877
O      9.45224      9.45224      1.03696        -0.144182     -0.099228      0.095279
Zr     10.48920      2.52580     10.48920         0.164953     -0.174081     -0.168501
Zr     10.48920     18.45260     10.48920        -0.101644      0.188103     -0.051398
Zr     10.48920     10.48920      2.52580         0.345406     -0.310590     -0.205948
Zr     10.48920     10.48920     18.45260         0.015801     -0.088780      0.199370
Zr      2.52580     10.48920     10.48920        -0.072358      0.180471     -0.052522
Zr     18.45260     10.48920     10.48920         0.147722     -0.133400     -0.253319
Ir     12.03755     12.48283     10.45415        -0.002899     -0.001090      0.000034
Ir     11.22160      7.41279     10.23703         0.006395     -0.000598     -0.016382
Ir      8.85856      7.34659     11.51803         0.004959     -0.006691     -0.012199
Ir      7.45845     11.64763      7.65758        -0.008686     -0.002178     -0.000068
Ir     11.59595     12.07014      7.11101         0.000519     -0.006212     -0.003240
Ir     13.78723      8.99366      7.51811         0.006146     -0.000221     -0.010802
Ir     12.46967     13.95153      8.40572        -0.003209     -0.002170     -0.003986
Ir      9.74157     11.25364      5.53653         0.004749     -0.003690     -0.005474
Ir      9.07366     13.43914      7.07742        -0.000221     -0.007870     -0.001149
Ir      9.26352      9.67464      7.49603        -0.002429      0.006467     -0.008326
Ir     13.28628      7.03432     11.96084         0.000201     -0.006857      0.002307
Ir     13.64480      7.04278      9.10580         0.014082      0.001079     -0.003648
Ir     11.04527      7.58928     12.79325        -0.003276     -0.001500     -0.015835
Ir     13.59622     11.56420      8.75008        -0.003034     -0.000483     -0.002936
Ir     11.50143      9.61804      6.21644        -0.003573     -0.007553     -0.005413
Ir      7.16229      9.14322      8.91734         0.000201     -0.006105     -0.005805
Ir     14.06104     11.44022     11.64469         0.000781      0.001067     -0.003612
Ir     11.66185      9.82153      8.85566        -0.002738     -0.009072     -0.009685
Ir      9.44496      9.49718     10.22230         0.008863     -0.001250     -0.006468
Ir     13.88155      9.41379     10.16394         0.004791      0.000040     -0.007882
Ir     13.84106      9.16258     12.87528         0.010243      0.000478     -0.008059
Ir     11.70481      9.75721     11.53413         0.001614     -0.002530     -0.008981
Ir      9.91806     11.72614      8.96072         0.005608     -0.010899     -0.002759
Ir      9.11547      7.43447      8.76114         0.011640     -0.000116     -0.017633
Ir     11.64798      7.51561      7.71410         0.022058     -0.015743     -0.016918
Ir      9.25606      9.46340     13.00077         0.001022     -0.007915     -0.004778
Ir      7.50482     13.89811      8.99450        -0.003441     -0.001554      0.001245
Ir     10.86059     14.09598     11.95280        -0.003688     -0.005232      0.001282
Ir     10.11044     14.14237      9.51445         0.001284     -0.001695     -0.001347
Ir      9.79011     11.67528     11.72243         0.002923     -0.006875     -0.002552
Ir      7.59116     11.55870     10.20529         0.000989     -0.003201     -0.003916
Ir      8.34253     13.73045     11.58143        -0.003211     -0.002144     -0.001760
Ir      7.52551     11.53702     12.82033        -0.001074     -0.008307     -0.000875
Ir      9.78073     11.58496     14.34164         0.004166     -0.009651      0.001201
Ir     13.46280     13.88348     12.18517        -0.003053     -0.001796     -0.001332
Ir     11.98975     12.04000     13.07558         0.002774     -0.004589     -0.003389
Ir     11.58801      9.77423     14.17291         0.004965     -0.012359     -0.009895
Ir      7.15896      9.34196     11.47565         0.000034     -0.006824     -0.005049
