152
# total energy = -1004.31997071 eVH     10.35389      5.87395      7.64558        -0.163956      0.198934      0.647934
H     10.62451     15.10445      7.64558        -0.267667     -0.135836      0.652885
H     10.62451      5.87395     13.33282         0.451949      0.042436     -0.955214
H     10.35389     15.10445     13.33282         0.065556     -0.187182     -0.537497
H      7.64558     10.35389      5.87395         0.395353      0.063477      0.121624
H      7.64558     10.62451     15.10445         0.770791      0.552516     -0.024514
H     13.33282     10.62451      5.87395        -0.451550     -0.004382      0.247093
H     13.33282     10.35389     15.10445        -0.771470     -0.211352      0.025815
H      5.87395      7.64558     10.35389         0.102886      1.914519      0.212345
H     15.10445      7.64558     10.62451        -0.089370      0.505178      0.215938
H      5.87395     13.33282     10.62451         0.210790     -0.652707     -0.019228
H     15.10445     13.33282     10.35389         0.230287     -1.444711     -0.370784
H      5.87395     10.35389      7.64558         0.100480      0.052176      0.548180
H     15.10445     10.62451      7.64558        -0.159475      1.003396      1.411336
H      5.87395     10.62451     13.33282        -0.061379      0.475844     -1.302349
H     15.10445     10.35389     13.33282         0.126322     -0.194023     -0.771908
H     10.35389      7.64558      5.87395         0.310403      1.332723      0.162685
H     10.62451      7.64558     15.10445         0.561376      0.808944     -0.085767
H     10.62451     13.33282      5.87395        -0.610026     -0.814640      0.223141
H     10.35389     13.33282     15.10445        -0.185602     -0.529127     -0.320404
H      7.64558      5.87395     10.35389         1.165359     -0.236326     -0.090344
H      7.64558     15.10445     10.62451         0.789054     -0.205022     -0.025547
H     13.33282      5.87395     10.62451        -0.602751      0.113586      0.643608
H     13.33282     15.10445     10.35389        -0.438911     -0.021299     -0.166763
H     12.45634     12.45634     19.01126         0.273128      0.245578     -0.233009
H     19.01126     19.01126     19.01126        -0.266183     -0.271440     -0.216649
H     19.01126     12.45634     12.45634        -0.276104      0.252765      0.231718
H     12.45634     19.01126     12.45634         0.252409     -0.281220      0.229940
C     10.35284      5.61067      6.59456        -0.143266     -0.821113     -0.547308
C     10.62556     15.36773      6.59456         0.102485      0.353653     -0.212907
C     10.62556      5.61067     14.38384        -0.072187     -0.566538      0.628114
C     10.35284     15.36773     14.38384        -0.004863      0.247574      0.528422
C      6.59456     10.35284      5.61067        -0.608787      0.076745     -0.416587
C      6.59456     10.62556     15.36773        -0.993932      0.228467      0.719405
C     14.38384     10.62556      5.61067         0.773027      0.040469     -0.934182
C     14.38384     10.35284     15.36773         0.933321     -0.114155      0.433964
C      5.61067      6.59456     10.35284        -0.902257     -1.090211     -0.403566
C     15.36773      6.59456     10.62556         0.675731      0.053499     -0.261030
C      5.61067     14.38384     10.62556        -0.237017      0.749870      0.017912
C     15.36773     14.38384     10.35284         0.297756      1.401178     -0.011663
C      5.61067     10.35284      6.59456        -0.275256      0.022668     -0.719152
C     15.36773     10.62556      6.59456         0.424211     -0.357846     -1.049179
C      5.61067     10.62556     14.38384        -0.344842     -0.008447      1.105140
C     15.36773     10.35284     14.38384         0.404279     -0.052385      0.859755
C     10.35284      6.59456      5.61067        -0.056177     -1.014526     -0.375907
C     10.62556      6.59456     15.36773         0.057797     -0.698044      0.534523
C     10.62556     14.38384      5.61067         0.141562      1.012357     -0.426206
C     10.35284     14.38384     15.36773        -0.020022      0.918654      0.466931
C      6.59456      5.61067     10.35284        -0.645890     -1.304575      0.105089
C      6.59456     15.36773     10.62556        -0.910648      0.169283      0.102112
C     14.38384      5.61067     10.62556        -0.091148     -0.519930     -0.344555
C     14.38384     15.36773     10.35284         0.163066      0.671633     -0.068464
C     10.40319      3.19606      7.29314         0.005869      0.743002     -0.704103
C     10.35913      4.25547      6.23373         0.014606     -0.535416      0.107525
C      0.08601      7.29314      7.29314        -0.019605     -1.015182     -0.259819
C      0.13007      6.23373      6.23373        -0.050338      0.412535      0.392595
C      0.08601      3.19606      3.19606         0.047598      1.214615      0.200365
C      0.13007      4.25547      4.25547        -0.009098     -0.394620     -0.457045
C     10.40319      7.29314      3.19606        -0.009344     -0.554042      0.220899
C     10.35913      6.23373      4.25547        -0.018283      0.126534     -0.691099
C      7.29314     10.40319      3.19606        -0.381788      0.024089      0.294361
C      6.23373     10.35913      4.25547         0.218061      0.076091     -0.103063
C      7.29314      0.08601      7.29314        -1.126926     -0.081132     -0.379626
C      6.23373      0.13007      6.23373         0.640692     -0.182073      0.362977
C      3.19606      0.08601      3.19606         1.143934     -0.019065      0.299495
C      4.25547      0.13007      4.25547        -0.572516     -0.155046     -0.210760
C      3.19606     10.40319      7.29314         0.553914      0.032064     -0.251808
C      4.25547     10.35913      6.23373        -0.224018      0.085820      0.210792
C      3.19606      7.29314     10.40319         0.314567     -0.589406      0.039015
C      4.25547      6.23373     10.35913        -1.069727      0.042452      0.178670
C      7.29314      7.29314      0.08601        -0.492119     -0.460380     -0.022950
C      6.23373      6.23373      0.13007         0.508287      0.305165      0.027587
C      3.19606      3.19606      0.08601         0.617384      0.435525     -0.022841
C      4.25547      4.25547      0.13007        -0.090330     -0.755529     -0.103192
C      7.29314      3.19606     10.40319        -0.414375      0.487178      0.048405
C      6.23373      4.25547     10.35913         0.586562     -0.755239      0.185822
O     10.43466      3.58206      8.50569         0.043784      0.166267      0.605676
O     10.54374     17.39634      8.50569         0.048772     -0.031604      0.305699
O     10.54374      3.58206     12.47271         0.001901     -0.056809     -0.203527
O     10.43466     17.39634     12.47271        -0.037979     -0.113238     -0.404607
O      8.50569     10.43466      3.58206         0.528536     -0.039920      0.127476
O      8.50569     10.54374     17.39634         0.849540     -0.079220     -0.167006
O     12.47271     10.54374      3.58206        -0.866187      0.135630      0.129799
O     12.47271     10.43466     17.39634        -0.620366      0.030520     -0.175310
O      3.58206      8.50569     10.43466         0.173535      0.687890     -0.023671
O     17.39634      8.50569     10.54374        -0.139220      0.643800      0.022208
O      3.58206     12.47271     10.54374         0.106830     -0.548635      0.056442
O     17.39634     12.47271     10.43466        -0.171040     -0.586330     -0.050996
O      3.58206     10.43466      8.50569         0.086404     -0.041722      0.391886
O     17.39634     10.54374      8.50569         0.052285      0.097555      0.344495
O      3.58206     10.54374     12.47271        -0.013934      0.035505     -0.247410
O     17.39634     10.43466     12.47271        -0.130784     -0.029707     -0.471357
O     10.43466      8.50569      3.58206        -0.033378      0.621488      0.178150
O     10.54374      8.50569     17.39634        -0.093600      0.815172     -0.182524
O     10.54374     12.47271      3.58206         0.110112     -0.960208      0.169456
O     10.43466     12.47271     17.39634         0.040359     -0.588167     -0.115008
O      8.50569      3.58206     10.43466         0.584094      0.148949     -0.051751
O      8.50569     17.39634     10.54374         0.589088     -0.163871      0.013868
O     12.47271      3.58206     10.54374        -0.731228      0.142722      0.009178
O     12.47271     17.39634     10.43466        -0.505974     -0.120625     -0.031197
O     11.90042     11.90042     19.56718        -0.327551     -0.269859      0.243639
O     19.56718     19.56718     19.56718         0.296005      0.322594      0.208548
O     19.56718     11.90042     11.90042         0.346060     -0.277731     -0.249592
O     11.90042     19.56718     11.90042        -0.280228      0.352820     -0.232078
O      9.45224      1.03696      9.45224        -0.029113      0.098086     -0.132558
O      1.03696      9.45224      9.45224         0.057092     -0.021915     -0.121266
O      1.03696      1.03696      1.03696         0.062490      0.099896      0.097475
O      9.45224      9.45224      1.03696        -0.040950     -0.028600      0.085823
Zr     10.48920      2.52580     10.48920        -0.082849     -0.240067      0.137242
Zr     10.48920     18.45260     10.48920         0.033811      0.058626      0.101744
Zr     10.48920     10.48920      2.52580        -0.319588     -0.292881     -0.384708
Zr     10.48920     10.48920     18.45260         0.181007     -0.020016      0.391082
Zr      2.52580     10.48920     10.48920        -0.142953     -0.036002     -0.070182
Zr     18.45260     10.48920     10.48920         0.134486     -0.039527      0.135578
Pd     12.77059      8.34933      9.79042         0.019626      0.076876     -0.047998
Pd      6.65649      9.58614     10.43451        -0.043021      0.004730      0.030834
Pd      6.91966     11.75523     11.87454         0.014494     -0.055821     -0.023550
Pd     12.28369     13.50442      7.22630         0.001365      0.008196      0.000643
Pd     12.09173      7.92901      7.15480         0.024454     -0.005919      0.019408
Pd      8.50522      7.31984      6.89606        -0.008147      0.005497      0.020650
Pd     11.46744     11.47892      5.66104        -0.007435     -0.007676     -0.024108
Pd     14.49382      8.90321      7.83476        -0.025531     -0.058358      0.005102
Pd      9.82378     11.79871      7.92398         0.020605     -0.010373     -0.033205
Pd      7.08220      7.15134     11.98320        -0.020385     -0.025725     -0.041897
Pd      6.45671      7.55700      8.49937        -0.008816      0.008744     -0.074190
Pd      7.32270      9.25912     13.43824        -0.071300      0.099976      0.084307
Pd     11.42783      6.14087      9.20761        -0.023994      0.002786      0.023758
Pd      9.95537      9.55772      6.41064        -0.004941      0.008927      0.002440
Pd      9.10826     13.98521      9.37228        -0.001293     -0.005684     -0.017081
Pd     10.92706      7.25437     11.52871         0.013864      0.014349      0.007409
Pd     10.35890      9.09111      9.10050         0.077158     -0.038270      0.054548
Pd      9.36761     11.52491     10.53859        -0.032843     -0.022914      0.002422
Pd      8.92020      7.04472      9.58543        -0.032185      0.048089      0.000967
Pd      9.09636      7.32033     13.62661         0.064133     -0.036825     -0.010592
Pd      9.01443      9.08803     11.41353        -0.071236      0.057646     -0.098797
Pd     12.26998     10.61067      8.03892        -0.000272     -0.055399      0.011085
Pd      7.17775     12.01105      9.16446        -0.033489     -0.003221      0.002330
Pd      8.05786      9.69723      8.23252        -0.023321      0.012501     -0.005287
Pd     14.04293      6.38584      8.50445         0.003010     -0.043272     -0.004929
Pd     13.31573      8.45373     12.31470        -0.013611     -0.022658      0.048241
Pd      9.12244     11.37085     13.24910        -0.014259     -0.027613      0.031757
Pd     14.01252     12.38174      8.82687         0.037886     -0.064707      0.030633
Pd     13.17706     11.04935     13.09477        -0.002719     -0.031793     -0.050337
Pd     14.42181     10.34297     10.52956        -0.024896     -0.010334      0.039952
Pd     11.80178     10.60710     10.81079         0.060077     -0.023874      0.012681
Pd     11.54535     13.07403      9.70803         0.007120      0.013294      0.021852
Pd     13.65196     12.97837     11.48313         0.026320     -0.017062      0.013877
Pd     11.18844     12.75540     12.35203        -0.014471      0.010900      0.015345
Pd     11.25063     11.53598     14.84945         0.006753      0.025228     -0.005578
Pd     11.01050      9.44207     13.11793         0.053946      0.028475      0.001274
Pd      9.46420      9.55673     15.27390        -0.015527      0.005150     -0.022084
Pd      8.78115     13.77375     12.03134         0.001967      0.006247     -0.009722
