152
# total energy = -1004.69358768 eVH     10.35389      5.87395      7.64558        -0.026320      0.068421      0.672969
H     10.62451     15.10445      7.64558        -0.100958     -0.170800      0.543319
H     10.62451      5.87395     13.33282         0.427443      0.019401     -0.864026
H     10.35389     15.10445     13.33282         0.044127     -0.164700     -0.487795
H      7.64558     10.35389      5.87395         0.352646      0.029899      0.161049
H      7.64558     10.62451     15.10445         0.927078      0.579848      0.007675
H     13.33282     10.62451      5.87395        -0.549047      0.290301      0.053748
H     13.33282     10.35389     15.10445        -0.899213     -0.250675      0.078196
H      5.87395      7.64558     10.35389         0.286420      1.529416      0.221324
H     15.10445      7.64558     10.62451        -0.104778      0.540807      0.242560
H      5.87395     13.33282     10.62451         0.194563     -0.588924     -0.012139
H     15.10445     13.33282     10.35389         0.046572     -1.135963     -0.380686
H      5.87395     10.35389      7.64558         0.172760      0.034030      0.467949
H     15.10445     10.62451      7.64558        -0.157024      0.626545      0.926145
H      5.87395     10.62451     13.33282        -0.015652      0.559128     -1.239636
H     15.10445     10.35389     13.33282         0.020288     -0.176211     -0.752673
H     10.35389      7.64558      5.87395         0.089177      1.424301      0.059900
H     10.62451      7.64558     15.10445         0.530573      0.736665     -0.110831
H     10.62451     13.33282      5.87395        -0.367216     -0.704835      0.316208
H     10.35389     13.33282     15.10445        -0.195076     -0.488953     -0.323746
H      7.64558      5.87395     10.35389         1.041324     -0.085108     -0.153190
H      7.64558     15.10445     10.62451         0.819265     -0.189754     -0.067148
H     13.33282      5.87395     10.62451        -0.584214      0.148357      0.568534
H     13.33282     15.10445     10.35389        -0.500599     -0.064248     -0.209706
H     12.45634     12.45634     19.01126         0.261623      0.266560     -0.228318
H     19.01126     19.01126     19.01126        -0.274227     -0.259662     -0.223692
H     19.01126     12.45634     12.45634        -0.276508      0.258575      0.223514
H     12.45634     19.01126     12.45634         0.237734     -0.272220      0.258801
C     10.35284      5.61067      6.59456        -0.241367     -0.819859     -0.137510
C     10.62556     15.36773      6.59456         0.028258      0.213535     -0.379676
C     10.62556      5.61067     14.38384        -0.049308     -0.409735      0.572132
C     10.35284     15.36773     14.38384         0.000265      0.292739      0.493558
C      6.59456     10.35284      5.61067        -0.404685      0.026403     -0.231851
C      6.59456     10.62556     15.36773        -0.937082      0.157190      0.689890
C     14.38384     10.62556      5.61067         0.388517     -0.245516     -0.792634
C     14.38384     10.35284     15.36773         1.032571     -0.091691      0.291576
C      5.61067      6.59456     10.35284        -0.792198     -0.541373     -0.350829
C     15.36773      6.59456     10.62556         0.670798     -0.098003     -0.274688
C      5.61067     14.38384     10.62556        -0.212867      0.663416     -0.000989
C     15.36773     14.38384     10.35284         0.312545      1.079632      0.088095
C      5.61067     10.35284      6.59456        -0.262422      0.011874     -0.721078
C     15.36773     10.62556      6.59456         0.555111     -0.179692     -0.132643
C      5.61067     10.62556     14.38384        -0.607799     -0.022051      0.846047
C     15.36773     10.35284     14.38384         0.499918     -0.084152      1.023006
C     10.35284      6.59456      5.61067        -0.040496     -0.892036     -0.453474
C     10.62556      6.59456     15.36773         0.137951     -0.715427      0.506174
C     10.62556     14.38384      5.61067         0.085127      1.195061     -0.317881
C     10.35284     14.38384     15.36773        -0.033062      1.017836      0.514596
C      6.59456      5.61067     10.35284        -0.203587     -1.205082      0.202259
C      6.59456     15.36773     10.62556        -0.969696      0.159711      0.131216
C     14.38384      5.61067     10.62556        -0.084495     -0.454155     -0.355789
C     14.38384     15.36773     10.35284         0.206737      0.516330     -0.053063
C     10.40319      3.19606      7.29314         0.019572      1.005735     -0.477860
C     10.35913      4.25547      6.23373         0.073450     -0.617983      0.110176
C      0.08601      7.29314      7.29314        -0.031645     -0.910461     -0.179902
C      0.13007      6.23373      6.23373        -0.085773      0.264220      0.321527
C      0.08601      3.19606      3.19606         0.038228      1.298030      0.159827
C      0.13007      4.25547      4.25547        -0.035214     -0.393648     -0.316864
C     10.40319      7.29314      3.19606         0.003332     -0.466796      0.299673
C     10.35913      6.23373      4.25547         0.004984      0.097651     -0.844241
C      7.29314     10.40319      3.19606        -0.266993      0.018314      0.563805
C      6.23373     10.35913      4.25547         0.189100      0.083966     -0.106234
C      7.29314      0.08601      7.29314        -1.078452     -0.093391     -0.327020
C      6.23373      0.13007      6.23373         0.771926     -0.225270      0.393947
C      3.19606      0.08601      3.19606         1.077735     -0.028874      0.533065
C      4.25547      0.13007      4.25547        -0.645579     -0.187624     -0.492345
C      3.19606     10.40319      7.29314         0.597997      0.014169     -0.494231
C      4.25547     10.35913      6.23373        -0.260335      0.110746      0.227489
C      3.19606      7.29314     10.40319         0.345861     -1.075740      0.032257
C      4.25547      6.23373     10.35913        -1.119444      0.090673      0.156211
C      7.29314      7.29314      0.08601        -0.467858     -0.507575     -0.013559
C      6.23373      6.23373      0.13007         0.477324      0.334160      0.035029
C      3.19606      3.19606      0.08601         0.483105      0.405507     -0.031466
C      4.25547      4.25547      0.13007        -0.072654     -0.669241     -0.088593
C      7.29314      3.19606     10.40319        -0.394228      0.503828      0.062125
C      6.23373      4.25547     10.35913         0.433795     -0.750337      0.206014
O     10.43466      3.58206      8.50569        -0.027020      0.029373      0.441665
O     10.54374     17.39634      8.50569         0.062580     -0.043200      0.259155
O     10.54374      3.58206     12.47271         0.007740     -0.087958     -0.108653
O     10.43466     17.39634     12.47271        -0.036615     -0.143933     -0.523568
O      8.50569     10.43466      3.58206         0.324016     -0.020283      0.028680
O      8.50569     10.54374     17.39634         0.880223     -0.066110     -0.172691
O     12.47271     10.54374      3.58206        -0.855165      0.105324      0.081171
O     12.47271     10.43466     17.39634        -0.576133      0.026373     -0.120951
O      3.58206      8.50569     10.43466         0.181389      1.000451     -0.018760
O     17.39634      8.50569     10.54374        -0.150793      0.673046      0.050496
O      3.58206     12.47271     10.54374         0.104256     -0.528310      0.046416
O     17.39634     12.47271     10.43466        -0.160161     -0.604633     -0.029889
O      3.58206     10.43466      8.50569         0.066678     -0.072896      0.502949
O     17.39634     10.54374      8.50569         0.025766      0.100991      0.386680
O      3.58206     10.54374     12.47271         0.005629      0.034312     -0.452552
O     17.39634     10.43466     12.47271        -0.222600     -0.033101     -0.688628
O     10.43466      8.50569      3.58206        -0.043422      0.562301      0.154264
O     10.54374      8.50569     17.39634        -0.076278      0.744290     -0.215442
O     10.54374     12.47271      3.58206         0.072038     -0.960923      0.186486
O     10.43466     12.47271     17.39634         0.087185     -0.859051     -0.225780
O      8.50569      3.58206     10.43466         0.567484      0.141596     -0.054715
O      8.50569     17.39634     10.54374         0.545306     -0.149172     -0.000945
O     12.47271      3.58206     10.54374        -0.661670      0.153441      0.025796
O     12.47271     17.39634     10.43466        -0.361570      0.002210     -0.042827
O     11.90042     11.90042     19.56718        -0.304078     -0.305502      0.228762
O     19.56718     19.56718     19.56718         0.314246      0.304763      0.217366
O     19.56718     11.90042     11.90042         0.322438     -0.268211     -0.233151
O     11.90042     19.56718     11.90042        -0.256581      0.328988     -0.297055
O      9.45224      1.03696      9.45224        -0.013907      0.069996     -0.144524
O      1.03696      9.45224      9.45224         0.064899     -0.051430     -0.162848
O      1.03696      1.03696      1.03696         0.078975      0.125754      0.064847
O      9.45224      9.45224      1.03696        -0.072632     -0.066738      0.045024
Zr     10.48920      2.52580     10.48920        -0.037883     -0.192943      0.002699
Zr     10.48920     18.45260     10.48920        -0.042338      0.105338      0.208540
Zr     10.48920     10.48920      2.52580        -0.176270     -0.436610     -0.274368
Zr     10.48920     10.48920     18.45260         0.023658      0.024397      0.478119
Zr      2.52580     10.48920     10.48920        -0.245380      0.187943      0.130233
Zr     18.45260     10.48920     10.48920         0.180952     -0.011317     -0.045132
Pd     13.24970      8.62718      9.57695         0.102295     -0.004946     -0.061603
Pd      5.94256      9.70901     10.12891         0.011736      0.007405     -0.057427
Pd      6.89652     11.57129     11.73197         0.071269     -0.018146      0.019947
Pd     12.21919     13.13268      7.45549         0.018881     -0.004840     -0.071199
Pd     12.12808      7.69537      6.95569         0.024781      0.011480      0.034633
Pd      8.42983      7.17078      6.84863        -0.005922     -0.004494     -0.038617
Pd     11.17737     11.39617      5.63098        -0.017869     -0.079466     -0.084518
Pd     14.56219      8.63003      7.14868         0.006554      0.095562      0.051061
Pd      9.89969     11.68624      8.10168         0.024861      0.172077     -0.008868
Pd      6.93716      6.95048     12.16069        -0.102036     -0.062129     -0.113386
Pd      6.35565      7.50125      8.39689        -0.005618      0.017408      0.007439
Pd      7.15507      9.08571     13.63518         0.005694      0.038959      0.102116
Pd     11.52908      6.49383      9.23822         0.014349      0.005574      0.021955
Pd      9.93735      9.40218      6.75099         0.022279     -0.043421      0.028811
Pd      9.10903     13.93407      9.38304        -0.097384      0.037310      0.025973
Pd     10.72838      7.45600     11.47431        -0.077292     -0.054548      0.024366
Pd     10.55874      9.14161      9.40026        -0.017361     -0.102194      0.020721
Pd      9.44213     11.44459     10.70972         0.031446     -0.067759     -0.057275
Pd      8.92573      7.08052      9.47884         0.019127     -0.098423     -0.160880
Pd      9.12402      7.36377     13.50059        -0.016819      0.040276      0.070695
Pd      8.37925      9.07318     11.26734         0.009692     -0.046998      0.143395
Pd     12.30748     10.34110      7.77816        -0.085902      0.010524     -0.103395
Pd      7.28202     12.00610      9.14191         0.030601     -0.070190      0.040877
Pd      8.06968      9.55325      8.58907        -0.030367      0.083609     -0.136200
Pd     14.07584      6.34369      8.45642         0.026820      0.024629     -0.015010
Pd     13.02408      8.51933     12.21340        -0.087985      0.039958     -0.102140
Pd      8.86009     11.46827     13.43583         0.081168      0.009435      0.055125
Pd     13.84771     11.96887      9.13447         0.057784      0.058076     -0.027632
Pd     13.09364     11.09324     13.22342         0.034749     -0.071466      0.019278
Pd     14.75667     10.36137     11.04937        -0.019579      0.034152      0.140774
Pd     12.08776     10.76575     10.75154        -0.087353     -0.035928      0.023221
Pd     11.50865     13.23954      9.96507         0.005412      0.036485     -0.036863
Pd     13.62176     13.10668     11.66207        -0.020251     -0.001252     -0.071339
Pd     11.08248     12.74287     12.52085         0.049297     -0.005211     -0.036281
Pd     11.12524     11.49671     14.95384        -0.081040      0.017940     -0.000708
Pd     10.74194      9.75403     12.82309        -0.098674     -0.104523     -0.050227
Pd      9.43400      9.44932     15.18178         0.048044      0.037547      0.001338
Pd      8.65861     13.73894     12.01759         0.021921     -0.156256      0.041395
