152
# total energy = -1005.98932336 eVH     10.35389      5.87395      7.64558         0.257618      0.037364      0.636647
H     10.62451     15.10445      7.64558        -0.108232     -0.142796      0.522968
H     10.62451      5.87395     13.33282         0.486002      0.120916     -0.584330
H     10.35389     15.10445     13.33282         0.072593     -0.184517     -0.548116
H      7.64558     10.35389      5.87395         0.370933      0.056730      0.170836
H      7.64558     10.62451     15.10445         0.692515      0.471505     -0.041775
H     13.33282     10.62451      5.87395        -0.531220      0.418654      0.076287
H     13.33282     10.35389     15.10445        -0.802046     -0.095592      0.006723
H      5.87395      7.64558     10.35389         0.246971      0.747089     -0.336396
H     15.10445      7.64558     10.62451        -0.094891      0.484046      0.285295
H      5.87395     13.33282     10.62451         0.158091     -0.698076     -0.159362
H     15.10445     13.33282     10.35389        -0.006424     -1.037977     -0.328636
H      5.87395     10.35389      7.64558         0.255723      0.201154      0.654995
H     15.10445     10.62451      7.64558        -0.110363      0.406836      0.765236
H      5.87395     10.62451     13.33282         0.139065      0.332166     -0.695181
H     15.10445     10.35389     13.33282        -0.045855     -0.075466     -0.697237
H     10.35389      7.64558      5.87395         0.377615      1.046578     -0.008037
H     10.62451      7.64558     15.10445         0.535753      0.536091     -0.119310
H     10.62451     13.33282      5.87395        -0.397225     -0.838631      0.188419
H     10.35389     13.33282     15.10445        -0.043657     -0.433497     -0.217219
H      7.64558      5.87395     10.35389         0.850865      0.091281     -0.291288
H      7.64558     15.10445     10.62451         0.831965     -0.199544      0.004244
H     13.33282      5.87395     10.62451        -0.798799      0.191987      0.589327
H     13.33282     15.10445     10.35389        -0.444465     -0.108470     -0.134869
H     12.45634     12.45634     19.01126         0.235466      0.270684     -0.239621
H     19.01126     19.01126     19.01126        -0.262339     -0.240679     -0.261307
H     19.01126     12.45634     12.45634        -0.266755      0.268610      0.219307
H     12.45634     19.01126     12.45634         0.232285     -0.256301      0.277415
C     10.35284      5.61067      6.59456        -0.432544     -0.703254      0.166795
C     10.62556     15.36773      6.59456         0.064579      0.365050     -0.303989
C     10.62556      5.61067     14.38384        -0.331558     -0.369693     -0.299646
C     10.35284     15.36773     14.38384        -0.007436      0.339507      0.536787
C      6.59456     10.35284      5.61067        -0.261840     -0.005230     -0.353264
C      6.59456     10.62556     15.36773        -0.257259     -0.217854      0.803585
C     14.38384     10.62556      5.61067        -0.256278     -0.398425     -0.520779
C     14.38384     10.35284     15.36773         0.974565     -0.060607      0.253829
C      5.61067      6.59456     10.35284        -0.537895     -0.006322      0.101356
C     15.36773      6.59456     10.62556         0.530308      0.019444     -0.250325
C      5.61067     14.38384     10.62556        -0.330289      0.976337      0.078686
C     15.36773     14.38384     10.35284         0.309827      1.042575      0.049957
C      5.61067     10.35284      6.59456        -0.185796     -0.252656     -0.609329
C     15.36773     10.62556      6.59456         0.445722     -0.281343      0.115298
C      5.61067     10.62556     14.38384        -0.711242     -0.347631     -0.073401
C     15.36773     10.35284     14.38384         0.384291     -0.063945      1.022358
C     10.35284      6.59456      5.61067        -0.214012     -0.249965     -0.654594
C     10.62556      6.59456     15.36773        -0.267226      0.129504      0.450200
C     10.62556     14.38384      5.61067         0.199233      1.061675     -0.347541
C     10.35284     14.38384     15.36773         0.019835      0.543133      0.441146
C      6.59456      5.61067     10.35284        -0.157768     -0.697440      0.245591
C      6.59456     15.36773     10.62556        -1.011921      0.292484      0.079629
C     14.38384      5.61067     10.62556         0.495198     -0.551384     -0.365978
C     14.38384     15.36773     10.35284         0.215660      0.459411     -0.101382
C     10.40319      3.19606      7.29314         0.011546      0.684160     -0.480329
C     10.35913      4.25547      6.23373         0.086392     -0.722436     -0.020569
C      0.08601      7.29314      7.29314        -0.044090     -0.408596     -0.312106
C      0.13007      6.23373      6.23373        -0.022999      0.085474      0.571256
C      0.08601      3.19606      3.19606        -0.014434      1.261458      0.282707
C      0.13007      4.25547      4.25547         0.049866     -0.777159     -0.154471
C     10.40319      7.29314      3.19606         0.011104     -0.330963      0.337642
C     10.35913      6.23373      4.25547         0.026438      0.006856     -0.858931
C      7.29314     10.40319      3.19606        -0.332287      0.022083      0.565760
C      6.23373     10.35913      4.25547         0.204539      0.062711     -0.097689
C      7.29314      0.08601      7.29314        -0.520324     -0.064739     -0.374983
C      6.23373      0.13007      6.23373         0.680514     -0.051502      0.482741
C      3.19606      0.08601      3.19606         0.705184     -0.035429      0.568806
C      4.25547      0.13007      4.25547        -0.578549     -0.084065     -0.549001
C      3.19606     10.40319      7.29314         0.480438     -0.015242     -0.770135
C      4.25547     10.35913      6.23373        -0.432627      0.045742      0.199654
C      3.19606      7.29314     10.40319         0.291487     -1.272496      0.043170
C      4.25547      6.23373     10.35913        -0.745858      0.106841      0.153426
C      7.29314      7.29314      0.08601        -0.407843     -0.372816     -0.027491
C      6.23373      6.23373      0.13007         0.468280      0.213842     -0.018645
C      3.19606      3.19606      0.08601         0.492884      0.374305     -0.040270
C      4.25547      4.25547      0.13007        -0.155195     -0.648441     -0.034696
C      7.29314      3.19606     10.40319        -0.324096      0.432151      0.076407
C      6.23373      4.25547     10.35913         0.274210     -0.686791      0.142428
O     10.43466      3.58206      8.50569        -0.017204      0.104125      0.502807
O     10.54374     17.39634      8.50569         0.036591     -0.175140      0.485175
O     10.54374      3.58206     12.47271         0.055410     -0.086342     -0.185961
O     10.43466     17.39634     12.47271        -0.038653     -0.183043     -0.552145
O      8.50569     10.43466      3.58206         0.315215     -0.001846      0.028992
O      8.50569     10.54374     17.39634         0.629980      0.034142     -0.144468
O     12.47271     10.54374      3.58206        -0.697394      0.084181      0.093860
O     12.47271     10.43466     17.39634        -0.437958      0.025397     -0.110194
O      3.58206      8.50569     10.43466         0.178976      1.040043     -0.042629
O     17.39634      8.50569     10.54374        -0.160691      0.539389      0.076475
O      3.58206     12.47271     10.54374         0.085228     -0.366932      0.049091
O     17.39634     12.47271     10.43466        -0.156891     -0.546824     -0.022748
O      3.58206     10.43466      8.50569         0.077242     -0.065181      0.590236
O     17.39634     10.54374      8.50569        -0.110537      0.066277      0.523669
O      3.58206     10.54374     12.47271         0.046700      0.049337     -0.525147
O     17.39634     10.43466     12.47271        -0.221875     -0.038914     -0.601308
O     10.43466      8.50569      3.58206        -0.039820      0.460285      0.135647
O     10.54374      8.50569     17.39634         0.049836      0.530653     -0.159852
O     10.54374     12.47271      3.58206         0.001220     -1.014727      0.205217
O     10.43466     12.47271     17.39634         0.041922     -0.728615     -0.175111
O      8.50569      3.58206     10.43466         0.508176      0.146305     -0.054929
O      8.50569     17.39634     10.54374         0.487612     -0.197246      0.014559
O     12.47271      3.58206     10.54374        -0.635005      0.232035      0.009960
O     12.47271     17.39634     10.43466        -0.217988      0.069149     -0.056027
O     11.90042     11.90042     19.56718        -0.239468     -0.289705      0.247369
O     19.56718     19.56718     19.56718         0.310836      0.295266      0.301049
O     19.56718     11.90042     11.90042         0.291027     -0.264826     -0.233130
O     11.90042     19.56718     11.90042        -0.241716      0.290600     -0.332185
O      9.45224      1.03696      9.45224        -0.019575      0.087519     -0.072961
O      1.03696      9.45224      9.45224         0.091422     -0.092354     -0.137588
O      1.03696      1.03696      1.03696         0.089909      0.189525      0.049651
O      9.45224      9.45224      1.03696        -0.109578     -0.102729      0.033310
Zr     10.48920      2.52580     10.48920        -0.129044     -0.288328     -0.036862
Zr     10.48920     18.45260     10.48920        -0.075176      0.215478      0.085454
Zr     10.48920     10.48920      2.52580         0.039753     -0.404437     -0.254815
Zr     10.48920     10.48920     18.45260        -0.276303     -0.091152      0.322826
Zr      2.52580     10.48920     10.48920        -0.378721      0.241426      0.293756
Zr     18.45260     10.48920     10.48920         0.237602     -0.002963     -0.225123
Pd     13.61002      8.98114      9.21683        -0.001011      0.002462     -0.005792
Pd      5.62812      9.87003     10.13933        -0.000116     -0.000145     -0.005503
Pd      6.77495     11.85342     11.71008        -0.002503     -0.001592     -0.000385
Pd     12.06233     13.00345      7.36627        -0.001655     -0.002204     -0.002636
Pd     11.87890      7.74060      7.46178        -0.002046     -0.000498     -0.001332
Pd      8.31370      6.84659      6.56034         0.001567     -0.006526     -0.009343
Pd     10.61191     11.17068      5.65004        -0.015847     -0.001485      0.002616
Pd     14.39884      8.54946      6.73849        -0.000090     -0.000675     -0.002812
Pd      9.67072     11.73012      8.13211        -0.002389     -0.001674      0.005472
Pd      6.74646      6.79391     12.32991        -0.006240     -0.002381      0.003470
Pd      6.56597      8.14872      7.98811         0.018401      0.044388     -0.040138
Pd      6.52868      8.49574     14.37129        -0.002265     -0.001481      0.006085
Pd     11.49281      6.52188      9.94641        -0.004264     -0.001906      0.001473
Pd      9.49067      9.20049      7.15821        -0.008349     -0.000163      0.004293
Pd      8.97972     13.98861      9.33846        -0.000933      0.000125      0.010459
Pd      9.45527      7.37040     11.71524        -0.006981     -0.000775     -0.006811
Pd     10.62275      8.97567      9.68411        -0.000627     -0.007590     -0.004480
Pd      9.33986     11.54873     10.71919        -0.000033      0.005809      0.005781
Pd      8.88561      7.06145      9.13213        -0.007478      0.005993     -0.006268
Pd      8.55325      6.57860     14.24147         0.000328      0.000514     -0.002804
Pd      7.63776      9.32852     12.00720        -0.004505     -0.002980      0.006132
Pd     11.95828     10.37917      7.72429        -0.006794     -0.000785     -0.005924
Pd      7.13007     12.01486      9.06625        -0.001066     -0.000932      0.000179
Pd      8.13522      9.61605      9.42371         0.006131      0.003042      0.014950
Pd     14.01755      6.49619      8.52098        -0.003891      0.002090      0.001297
Pd     12.62536      8.40245     11.57712         0.002269      0.000163     -0.004844
Pd      8.76612     11.57545     13.40839        -0.001633     -0.003208      0.002114
Pd     13.88389     11.92796      8.96657        -0.003209     -0.004785      0.000370
Pd     12.94761     10.70300     13.06974        -0.004115     -0.001408      0.003396
Pd     14.78166     10.44379     11.11132        -0.005495     -0.006098      0.002596
Pd     12.06811     10.89870     10.53385        -0.004530      0.002544     -0.000005
Pd     11.44238     13.34900      9.93165         0.002470      0.000762     -0.000952
Pd     13.59914     12.92224     11.62759         0.000036     -0.002726      0.000233
Pd     11.11902     12.61689     12.54065        -0.002131      0.004019      0.001219
Pd     10.95009     11.06127     14.81629        -0.002292      0.002464      0.002344
Pd     10.51060      9.73268     12.38193        -0.006377     -0.005439      0.002288
Pd      9.08414      9.14180     14.42540         0.002358      0.002102      0.001687
Pd      8.81673     13.85644     12.03521        -0.007675      0.002683      0.010971
