152
# total energy = -1061.44963784 eVH     10.35389      5.87395      7.64558        -0.176436      0.121952      1.023311
H     10.62451     15.10445      7.64558         0.431972     -0.110005      0.757597
H     10.62451      5.87395     13.33282        -0.103352      0.095815     -0.465026
H     10.35389     15.10445     13.33282         0.094978     -0.182918     -0.395708
H      7.64558     10.35389      5.87395         0.927969      0.197927      0.206767
H      7.64558     10.62451     15.10445         0.208559     -0.021725     -0.071286
H     13.33282     10.62451      5.87395        -0.617191     -0.043698      0.162865
H     13.33282     10.35389     15.10445        -0.326362     -0.063844     -0.067668
H      5.87395      7.64558     10.35389         0.130189      0.360236     -0.074970
H     15.10445      7.64558     10.62451        -0.135821      0.473399      0.196152
H      5.87395     13.33282     10.62451         0.112822     -0.620454      0.085769
H     15.10445     13.33282     10.35389        -0.232464     -0.432845      0.091120
H      5.87395     10.35389      7.64558         0.155740      0.262853      0.376333
H     15.10445     10.62451      7.64558        -0.133585     -0.399618      0.763260
H      5.87395     10.62451     13.33282         0.035998      0.144482     -0.701881
H     15.10445     10.35389     13.33282         0.096328     -0.271291     -0.761078
H     10.35389      7.64558      5.87395        -0.135015      0.439176      0.224053
H     10.62451      7.64558     15.10445         0.367256      0.614312     -0.118185
H     10.62451     13.33282      5.87395         0.120639     -0.573015      0.105062
H     10.35389     13.33282     15.10445         0.259335     -0.730242     -0.079889
H      7.64558      5.87395     10.35389         0.477977      0.146895     -0.155283
H      7.64558     15.10445     10.62451         0.403456     -0.154864      0.402405
H     13.33282      5.87395     10.62451        -0.383183      0.157763     -0.071898
H     13.33282     15.10445     10.35389        -0.577180     -0.289922      0.118360
H     12.45634     12.45634     19.01126         0.232043      0.264897     -0.247593
H     19.01126     19.01126     19.01126        -0.260549     -0.259960     -0.229826
H     19.01126     12.45634     12.45634        -0.233704      0.274390      0.237632
H     12.45634     19.01126     12.45634         0.277034     -0.211422      0.254542
C     10.35284      5.61067      6.59456         0.282568     -0.296782     -0.802584
C     10.62556     15.36773      6.59456        -0.213479      0.635647     -0.232635
C     10.62556      5.61067     14.38384         0.255766     -0.262643      0.495171
C     10.35284     15.36773     14.38384        -0.112187      0.272699      0.252307
C      6.59456     10.35284      5.61067        -0.877686     -0.105193     -0.239773
C      6.59456     10.62556     15.36773        -0.511011      0.043340      0.343731
C     14.38384     10.62556      5.61067         0.802666     -0.043324     -0.645466
C     14.38384     10.35284     15.36773         0.265269     -0.081248      0.364562
C      5.61067      6.59456     10.35284        -0.396273     -0.354840      0.074911
C     15.36773      6.59456     10.62556         0.299958     -0.528734     -0.083305
C      5.61067     14.38384     10.62556        -0.147776      0.529279     -0.358917
C     15.36773     14.38384     10.35284         0.416038      0.836758     -0.099616
C      5.61067     10.35284      6.59456        -0.313851     -0.150189     -0.101805
C     15.36773     10.62556      6.59456         0.225929      0.302178     -0.594499
C      5.61067     10.62556     14.38384        -0.335971     -0.039192      1.198535
C     15.36773     10.35284     14.38384         0.284813     -0.050998      1.022469
C     10.35284      6.59456      5.61067         0.083986     -0.261516     -0.505155
C     10.62556      6.59456     15.36773         0.011760     -0.783925      0.159298
C     10.62556     14.38384      5.61067        -0.386602      0.137409     -0.881513
C     10.35284     14.38384     15.36773        -0.259946      0.863463      0.264735
C      6.59456      5.61067     10.35284        -0.345558     -0.283833      0.255720
C      6.59456     15.36773     10.62556        -0.347588      0.543522     -0.029920
C     14.38384      5.61067     10.62556         0.462119     -0.358344      0.061663
C     14.38384     15.36773     10.35284         0.960224      0.266496     -0.059506
C     10.40319      3.19606      7.29314         0.005952      0.556792     -0.317182
C     10.35913      4.25547      6.23373        -0.013374     -0.522819      0.431648
C      0.08601      7.29314      7.29314        -0.013596     -0.863921     -0.554069
C      0.13007      6.23373      6.23373        -0.174357      0.866579      0.140831
C      0.08601      3.19606      3.19606        -0.012843      0.396626      0.380930
C      0.13007      4.25547      4.25547         0.058617     -0.202161     -0.595493
C     10.40319      7.29314      3.19606        -0.049494     -1.079770      0.751204
C     10.35913      6.23373      4.25547         0.011001      0.344424     -0.213515
C      7.29314     10.40319      3.19606        -1.252982     -0.082653      0.325441
C      6.23373     10.35913      4.25547         0.275382      0.022176     -0.707080
C      7.29314      0.08601      7.29314        -0.836353     -0.000833     -0.413926
C      6.23373      0.13007      6.23373         0.333606      0.055186      0.128902
C      3.19606      0.08601      3.19606         0.327325      0.000582      0.430043
C      4.25547      0.13007      4.25547        -0.287830     -0.034653     -0.182205
C      3.19606     10.40319      7.29314         0.501447     -0.042608     -1.017083
C      4.25547     10.35913      6.23373        -0.313524     -0.071998      0.101150
C      3.19606      7.29314     10.40319         1.064879     -0.455629      0.006635
C      4.25547      6.23373     10.35913        -0.191361      0.165207     -0.002828
C      7.29314      7.29314      0.08601        -0.475458     -0.280287     -0.007154
C      6.23373      6.23373      0.13007         0.193289      0.132278     -0.146729
C      3.19606      3.19606      0.08601         0.349309      0.848440     -0.007951
C      4.25547      4.25547      0.13007        -0.529783     -0.191943      0.044116
C      7.29314      3.19606     10.40319        -0.196177      0.506766      0.025326
C      6.23373      4.25547     10.35913        -0.009578     -0.362139      0.044823
O     10.43466      3.58206      8.50569        -0.021943      0.133163      0.385339
O     10.54374     17.39634      8.50569         0.042792      0.054043      0.361181
O     10.54374      3.58206     12.47271         0.042139      0.195327     -0.572358
O     10.43466     17.39634     12.47271         0.027322     -0.004404     -0.438639
O      8.50569     10.43466      3.58206         0.757897     -0.064189      0.008319
O      8.50569     10.54374     17.39634         0.854837      0.023470     -0.160474
O     12.47271     10.54374      3.58206        -0.348023      0.038322      0.077437
O     12.47271     10.43466     17.39634        -0.383772     -0.035275      0.036465
O      3.58206      8.50569     10.43466        -0.098221      0.275354     -0.077013
O     17.39634      8.50569     10.54374        -0.110460      0.445067      0.040578
O      3.58206     12.47271     10.54374         0.145672     -0.805389     -0.017454
O     17.39634     12.47271     10.43466        -0.240707     -0.637726     -0.014275
O      3.58206     10.43466      8.50569         0.126537     -0.034717      0.785715
O     17.39634     10.54374      8.50569         0.005337      0.034702      0.337015
O      3.58206     10.54374     12.47271         0.067646      0.018153     -0.462103
O     17.39634     10.43466     12.47271         0.035707      0.012950     -0.252698
O     10.43466      8.50569      3.58206        -0.059336      0.594610     -0.064650
O     10.54374      8.50569     17.39634         0.026490      0.878399     -0.204225
O     10.54374     12.47271      3.58206         0.067360     -0.369642      0.080702
O     10.43466     12.47271     17.39634        -0.055854     -0.643941     -0.198454
O      8.50569      3.58206     10.43466         0.345048      0.079656     -0.052520
O      8.50569     17.39634     10.54374         0.547563     -0.158502     -0.009692
O     12.47271      3.58206     10.54374        -0.367298      0.055747      0.034208
O     12.47271     17.39634     10.43466        -0.832332     -0.148850      0.064882
O     11.90042     11.90042     19.56718        -0.245135     -0.282378      0.237329
O     19.56718     19.56718     19.56718         0.298487      0.294958      0.250863
O     19.56718     11.90042     11.90042         0.229907     -0.304431     -0.278778
O     11.90042     19.56718     11.90042        -0.274959      0.180022     -0.273020
O      9.45224      1.03696      9.45224        -0.111331      0.091201     -0.083450
O      1.03696      9.45224      9.45224         0.128273     -0.148076     -0.168575
O      1.03696      1.03696      1.03696         0.137510      0.205287     -0.001673
O      9.45224      9.45224      1.03696        -0.209501     -0.169391      0.032686
Zr     10.48920      2.52580     10.48920        -0.002310     -0.232478      0.151859
Zr     10.48920     18.45260     10.48920        -0.304036      0.306331     -0.159679
Zr     10.48920     10.48920      2.52580         0.341254      0.411809     -0.229271
Zr     10.48920     10.48920     18.45260         0.001931      0.013413      0.470106
Zr      2.52580     10.48920     10.48920        -0.554448      0.029956      0.333138
Zr     18.45260     10.48920     10.48920         0.275390     -0.147376      0.005874
Pd      9.18032     14.61180      9.21319        -0.014290      0.039419     -0.011132
Pd      8.47706     13.22327     13.82617        -0.023086      0.011274      0.015771
Pd     12.16417     14.09848      8.65127         0.003281      0.024525      0.006902
Pd     12.25962     12.75014     10.90990         0.003761      0.017381     -0.032151
Pd     11.79657      7.09013     11.92257         0.003075     -0.007504     -0.016168
Pd     11.16002     15.30109     10.89473         0.010294      0.029875      0.002437
Pd      9.62403     13.15971     11.41915        -0.007686     -0.020353     -0.014080
Pd     14.05261     12.38592      7.96521        -0.032938     -0.014212      0.033941
Pd     11.58995     11.76645      6.75969        -0.008962      0.009628      0.003577
Pd      7.48279      8.55282      7.17925        -0.031375     -0.016745     -0.006412
Pd      8.63738     12.04229      6.91211        -0.009429      0.031721     -0.013499
Pd      9.76172      9.88851      8.01294        -0.007522      0.008863     -0.001526
Pd      8.48184     14.68697      6.56510         0.004984      0.026882      0.001900
Pd     12.06805      9.05391      6.85275        -0.010720      0.002406     -0.010024
Pd      9.93946     10.01160      5.40806        -0.011350      0.006887      0.003782
Pd      6.92207      9.22716     12.17099        -0.015715      0.006489      0.000647
Pd     12.41804      6.52216      7.68455        -0.013153      0.011609     -0.004386
Pd      5.57913     10.67591     10.11576         0.003545     -0.001446     -0.002236
Pd      7.57235      6.67279     12.69992         0.017327      0.005503      0.013436
Ir     11.29650      9.55007     12.85762         0.013998     -0.007839     -0.017484
Ir     13.09226      9.24085     11.09763        -0.041645      0.027479      0.038241
Ir      9.15786      8.43485     13.75787        -0.005104     -0.014692     -0.020748
Ir     10.28393     10.37839     15.08355        -0.014369     -0.012885     -0.017977
Ir      7.11182     11.91265     11.84863         0.025815     -0.018534     -0.008655
Ir     14.42395     11.19326     10.33181        -0.009503      0.018792     -0.028193
Ir     12.29033     10.62040      9.06934         0.029756      0.006136      0.009687
Ir      8.94215     10.80704     12.90195        -0.027129     -0.011443     -0.001981
Ir     10.03778     10.27908     10.63140        -0.014297      0.005870     -0.011052
Ir     13.31996     11.21104     12.62782        -0.001700     -0.032386     -0.007979
Ir     11.11327     12.04779     13.34662        -0.001058      0.005988      0.013772
Ir      7.96462     11.71849      9.51881        -0.004117      0.029229      0.022871
Ir     11.30047      8.14745      9.46065        -0.067426     -0.019475      0.035090
Ir      6.96491     13.53419      8.33299         0.016066      0.016781      0.016139
Ir      9.08035      7.28981      8.79100         0.017395      0.005686      0.058257
Ir      7.75448      9.20878      9.70823         0.002020     -0.029243      0.001471
Ir     10.37134     12.32895      8.99545         0.001997     -0.053408     -0.024659
Ir      9.33846      7.88822     11.25486        -0.013481      0.006158     -0.017609
Ir     13.75850      8.46273      8.81571         0.062590     -0.001534     -0.053846
