8
# total energy = -53.49689947 eVC      1.14292     13.04711      0.00000         0.000000      0.002511      0.000000
C      1.14292      4.23909     -0.00000        -0.000000     -0.002511      0.000000
O      1.14292      5.42843      0.00000        -0.000000     -0.010038     -0.000000
O      1.14292     11.85777     -0.00000        -0.000000      0.010038      0.000000
O     -0.00000     13.82255      0.00000        -0.000000     -0.012323      0.000000
O      0.00000      3.46365     -0.00000        -0.000000      0.012323      0.000000
Ir     -0.00000      8.64310      0.00000        -0.000000      0.000000      0.000000
Ir     -0.00000      0.00000      0.00000        -0.000000      0.000000      0.000000
