152
# total energy = -1004.75141439 eVH     10.35389      5.87395      7.64558         0.005320      0.062467      0.665743
H     10.62451     15.10445      7.64558        -0.114337     -0.163316      0.539124
H     10.62451      5.87395     13.33282         0.430225      0.023456     -0.854835
H     10.35389     15.10445     13.33282         0.043024     -0.162700     -0.480022
H      7.64558     10.35389      5.87395         0.349311      0.028553      0.158792
H      7.64558     10.62451     15.10445         0.931922      0.598592      0.017404
H     13.33282     10.62451      5.87395        -0.557860      0.324719      0.037307
H     13.33282     10.35389     15.10445        -0.930884     -0.255177      0.105051
H      5.87395      7.64558     10.35389         0.291308      1.514938      0.168177
H     15.10445      7.64558     10.62451        -0.104445      0.549530      0.248127
H      5.87395     13.33282     10.62451         0.192268     -0.584829     -0.005452
H     15.10445     13.33282     10.35389         0.042476     -1.130969     -0.380402
H      5.87395     10.35389      7.64558         0.176324      0.034842      0.467934
H     15.10445     10.62451      7.64558        -0.148113      0.617812      0.878360
H      5.87395     10.62451     13.33282        -0.028834      0.586581     -1.277452
H     15.10445     10.35389     13.33282         0.019026     -0.172521     -0.755289
H     10.35389      7.64558      5.87395         0.079675      1.409397      0.037710
H     10.62451      7.64558     15.10445         0.541271      0.729095     -0.106915
H     10.62451     13.33282      5.87395        -0.363446     -0.725222      0.304471
H     10.35389     13.33282     15.10445        -0.176695     -0.481631     -0.317544
H      7.64558      5.87395     10.35389         1.029868     -0.054698     -0.214091
H      7.64558     15.10445     10.62451         0.809738     -0.191009     -0.048071
H     13.33282      5.87395     10.62451        -0.589144      0.153969      0.555924
H     13.33282     15.10445     10.35389        -0.481074     -0.069634     -0.196130
H     12.45634     12.45634     19.01126         0.259904      0.267890     -0.228303
H     19.01126     19.01126     19.01126        -0.274483     -0.260341     -0.223908
H     19.01126     12.45634     12.45634        -0.276607      0.259515      0.222484
H     12.45634     19.01126     12.45634         0.237848     -0.271662      0.260520
C     10.35284      5.61067      6.59456        -0.262809     -0.816815     -0.106276
C     10.62556     15.36773      6.59456         0.031058      0.221169     -0.363603
C     10.62556      5.61067     14.38384        -0.054306     -0.425852      0.549587
C     10.35284     15.36773     14.38384        -0.000562      0.301706      0.477798
C      6.59456     10.35284      5.61067        -0.387520      0.024478     -0.219303
C      6.59456     10.62556     15.36773        -0.975071      0.177319      0.720177
C     14.38384     10.62556      5.61067         0.342169     -0.289847     -0.779191
C     14.38384     10.35284     15.36773         1.068883     -0.081893      0.276336
C      5.61067      6.59456     10.35284        -0.824278     -0.463423     -0.398177
C     15.36773      6.59456     10.62556         0.668449     -0.119363     -0.274619
C      5.61067     14.38384     10.62556        -0.204705      0.653902     -0.002372
C     15.36773     14.38384     10.35284         0.323009      1.072625      0.082988
C      5.61067     10.35284      6.59456        -0.265781      0.010384     -0.741568
C     15.36773     10.62556      6.59456         0.554558     -0.154204     -0.007870
C      5.61067     10.62556     14.38384        -0.655231     -0.003556      0.876651
C     15.36773     10.35284     14.38384         0.512692     -0.090557      1.041602
C     10.35284      6.59456      5.61067        -0.038035     -0.895318     -0.489370
C     10.62556      6.59456     15.36773         0.124472     -0.665097      0.495501
C     10.62556     14.38384      5.61067         0.091259      1.169424     -0.311805
C     10.35284     14.38384     15.36773        -0.030381      0.998994      0.519186
C      6.59456      5.61067     10.35284        -0.088295     -1.231400      0.178396
C      6.59456     15.36773     10.62556        -0.960704      0.156634      0.123308
C     14.38384      5.61067     10.62556        -0.062312     -0.453489     -0.368006
C     14.38384     15.36773     10.35284         0.185807      0.522495     -0.062628
C     10.40319      3.19606      7.29314         0.019050      1.020718     -0.464629
C     10.35913      4.25547      6.23373         0.074575     -0.632150      0.098588
C      0.08601      7.29314      7.29314        -0.031466     -0.899235     -0.178725
C      0.13007      6.23373      6.23373        -0.079908      0.258923      0.334861
C      0.08601      3.19606      3.19606         0.035208      1.294034      0.169419
C      0.13007      4.25547      4.25547        -0.034082     -0.404306     -0.319113
C     10.40319      7.29314      3.19606         0.006579     -0.453871      0.297282
C     10.35913      6.23373      4.25547         0.011552      0.080519     -0.863007
C      7.29314     10.40319      3.19606        -0.260558      0.018821      0.576228
C      6.23373     10.35913      4.25547         0.182972      0.083082     -0.108841
C      7.29314      0.08601      7.29314        -1.113551     -0.091411     -0.310307
C      6.23373      0.13007      6.23373         0.796283     -0.229748      0.392689
C      3.19606      0.08601      3.19606         1.065734     -0.030130      0.542111
C      4.25547      0.13007      4.25547        -0.641179     -0.187616     -0.542316
C      3.19606     10.40319      7.29314         0.599231      0.011859     -0.535016
C      4.25547     10.35913      6.23373        -0.275572      0.111315      0.234059
C      3.19606      7.29314     10.40319         0.350548     -1.127173      0.035489
C      4.25547      6.23373     10.35913        -1.147477      0.067708      0.153964
C      7.29314      7.29314      0.08601        -0.460459     -0.495244     -0.013810
C      6.23373      6.23373      0.13007         0.475398      0.329109      0.034369
C      3.19606      3.19606      0.08601         0.466916      0.392638     -0.032461
C      4.25547      4.25547      0.13007        -0.071743     -0.653900     -0.083862
C      7.29314      3.19606     10.40319        -0.410622      0.515204      0.067061
C      6.23373      4.25547     10.35913         0.393863     -0.798916      0.203488
O     10.43466      3.58206      8.50569        -0.029878      0.020382      0.426264
O     10.54374     17.39634      8.50569         0.062944     -0.049458      0.265680
O     10.54374      3.58206     12.47271         0.011074     -0.087943     -0.109735
O     10.43466     17.39634     12.47271        -0.036730     -0.148340     -0.526799
O      8.50569     10.43466      3.58206         0.309443     -0.020497      0.023916
O      8.50569     10.54374     17.39634         0.898696     -0.072613     -0.177689
O     12.47271     10.54374      3.58206        -0.853255      0.103194      0.080744
O     12.47271     10.43466     17.39634        -0.564749      0.026404     -0.113108
O      3.58206      8.50569     10.43466         0.171022      1.023185     -0.020305
O     17.39634      8.50569     10.54374        -0.150563      0.660779      0.052271
O      3.58206     12.47271     10.54374         0.104620     -0.515322      0.044960
O     17.39634     12.47271     10.43466        -0.153876     -0.614823     -0.030306
O      3.58206     10.43466      8.50569         0.066480     -0.075013      0.518275
O     17.39634     10.54374      8.50569         0.033462      0.102565      0.368631
O      3.58206     10.54374     12.47271         0.005147      0.036395     -0.458476
O     17.39634     10.43466     12.47271        -0.227625     -0.034096     -0.696815
O     10.43466      8.50569      3.58206        -0.044829      0.549236      0.152676
O     10.54374      8.50569     17.39634        -0.074794      0.734780     -0.212733
O     10.54374     12.47271      3.58206         0.067355     -0.969174      0.198790
O     10.43466     12.47271     17.39634         0.085062     -0.877108     -0.228800
O      8.50569      3.58206     10.43466         0.580650      0.139665     -0.057300
O      8.50569     17.39634     10.54374         0.541855     -0.153019     -0.001611
O     12.47271      3.58206     10.54374        -0.649551      0.157122      0.025338
O     12.47271     17.39634     10.43466        -0.355809      0.015907     -0.044225
O     11.90042     11.90042     19.56718        -0.300246     -0.307135      0.225397
O     19.56718     19.56718     19.56718         0.313759      0.305375      0.216253
O     19.56718     11.90042     11.90042         0.321008     -0.268757     -0.233506
O     11.90042     19.56718     11.90042        -0.255291      0.325779     -0.301467
O      9.45224      1.03696      9.45224        -0.012608      0.067214     -0.149328
O      1.03696      9.45224      9.45224         0.063358     -0.053929     -0.169756
O      1.03696      1.03696      1.03696         0.080494      0.131276      0.061080
O      9.45224      9.45224      1.03696        -0.076208     -0.072521      0.040270
Zr     10.48920      2.52580     10.48920        -0.043280     -0.190124      0.001524
Zr     10.48920     18.45260     10.48920        -0.044899      0.113547      0.209995
Zr     10.48920     10.48920      2.52580        -0.163946     -0.434552     -0.260420
Zr     10.48920     10.48920     18.45260         0.022331      0.019410      0.491499
Zr      2.52580     10.48920     10.48920        -0.249314      0.201144      0.158064
Zr     18.45260     10.48920     10.48920         0.176566     -0.004667     -0.048730
Pd     13.32508      8.65053      9.50501         0.002818      0.192194     -0.054095
Pd      5.89084      9.71914     10.10106         0.116830      0.018209     -0.050794
Pd      6.89433     11.55085     11.72906         0.057279     -0.081026      0.049768
Pd     12.19316     13.14184      7.46113         0.024080     -0.058814     -0.124256
Pd     12.13787      7.67857      6.93749         0.047182      0.004864      0.041799
Pd      8.40827      7.14277      6.81748        -0.044445      0.001370     -0.102900
Pd     11.14547     11.37185      5.63144        -0.081874      0.017617     -0.108020
Pd     14.57564      8.61227      7.05897        -0.015459      0.005943      0.091321
Pd      9.90056     11.68829      8.13820         0.044027     -0.014908     -0.161706
Pd      6.89139      6.89519     12.16418         0.085515      0.182959      0.266752
Pd      6.35361      7.51269      8.38705         0.077824      0.024037      0.020364
Pd      7.13531      9.09014     13.63613        -0.003709     -0.187865     -0.018251
Pd     11.55753      6.52813      9.24582         0.041648     -0.077027      0.043709
Pd      9.94111      9.36059      6.78872        -0.037605      0.070549      0.049213
Pd      9.09770     13.91655      9.40908        -0.085551      0.082025      0.054504
Pd     10.66661      7.43094     11.48066        -0.091890     -0.116223      0.030128
Pd     10.57175      9.11052      9.42851         0.056959      0.068883     -0.068292
Pd      9.42714     11.39221     10.73006         0.057930     -0.015629     -0.015080
Pd      8.94672      7.04005      9.40293        -0.064732      0.066484     -0.032032
Pd      9.09425      7.34654     13.53620        -0.151720     -0.016128     -0.034794
Pd      8.33029      9.01414     11.27072        -0.040200     -0.072715     -0.017578
Pd     12.28356     10.33623      7.74050         0.026977      0.036132      0.178850
Pd      7.27890     11.99701      9.14723        -0.023307      0.022672      0.043596
Pd      8.06736      9.56567      8.60309        -0.004040     -0.121127     -0.006538
Pd     14.08916      6.33799      8.44477         0.081444      0.054105     -0.052874
Pd     12.97507      8.52338     12.13277        -0.125165      0.025373     -0.131681
Pd      8.84567     11.47532     13.46382        -0.053956      0.029359      0.006942
Pd     13.84424     11.97281      9.11681        -0.002275     -0.113038      0.021208
Pd     13.07813     11.05482     13.23734        -0.074392     -0.017693     -0.011601
Pd     14.77291     10.37488     11.07383        -0.134757      0.060822      0.050915
Pd     12.08393     10.75395     10.76052         0.020983     -0.021074     -0.078304
Pd     11.50059     13.21929      9.97632         0.002103     -0.015617      0.001122
Pd     13.62454     13.07336     11.65445        -0.069653     -0.051269      0.000821
Pd     11.07844     12.72593     12.53833         0.080660     -0.034230     -0.099711
Pd     11.08671     11.46503     14.96380         0.096649      0.092283      0.003008
Pd     10.68371      9.74133     12.81544         0.062870     -0.115114     -0.063088
Pd      9.39896      9.44758     15.18246         0.052784     -0.065832      0.088176
Pd      8.65261     13.70364     12.03754         0.003056     -0.081012     -0.014097
