152
# total energy = -1004.35598922 eVH     10.35389      5.87395      7.64558        -0.114339      0.157862      0.646401
H     10.62451     15.10445      7.64558        -0.226692     -0.154626      0.607122
H     10.62451      5.87395     13.33282         0.424771      0.030928     -0.892265
H     10.35389     15.10445     13.33282         0.061113     -0.181704     -0.525969
H      7.64558     10.35389      5.87395         0.371085      0.049826      0.143510
H      7.64558     10.62451     15.10445         0.849641      0.599656      0.024407
H     13.33282     10.62451      5.87395        -0.447843      0.015824      0.216495
H     13.33282     10.35389     15.10445        -0.791406     -0.221605      0.025247
H      5.87395      7.64558     10.35389         0.129964      1.731712      0.104109
H     15.10445      7.64558     10.62451        -0.076500      0.501466      0.238188
H      5.87395     13.33282     10.62451         0.207470     -0.592617     -0.012539
H     15.10445     13.33282     10.35389         0.241477     -1.394066     -0.457300
H      5.87395     10.35389      7.64558         0.132106      0.037059      0.516571
H     15.10445     10.62451      7.64558        -0.198427      0.965083      1.448127
H      5.87395     10.62451     13.33282        -0.099549      0.608586     -1.356123
H     15.10445     10.35389     13.33282         0.110083     -0.202875     -0.779267
H     10.35389      7.64558      5.87395         0.342217      1.296936      0.154233
H     10.62451      7.64558     15.10445         0.537549      0.787626     -0.086424
H     10.62451     13.33282      5.87395        -0.562572     -0.742164      0.286239
H     10.35389     13.33282     15.10445        -0.239958     -0.519190     -0.334258
H      7.64558      5.87395     10.35389         1.191036     -0.255449     -0.085585
H      7.64558     15.10445     10.62451         0.822859     -0.198531     -0.037710
H     13.33282      5.87395     10.62451        -0.598708      0.115626      0.663025
H     13.33282     15.10445     10.35389        -0.470531     -0.021886     -0.195312
H     12.45634     12.45634     19.01126         0.270508      0.249956     -0.231244
H     19.01126     19.01126     19.01126        -0.265977     -0.267902     -0.220022
H     19.01126     12.45634     12.45634        -0.277948      0.253511      0.229544
H     12.45634     19.01126     12.45634         0.247439     -0.281217      0.235552
C     10.35284      5.61067      6.59456        -0.137976     -0.798386     -0.453911
C     10.62556     15.36773      6.59456         0.121673      0.283228     -0.213088
C     10.62556      5.61067     14.38384        -0.047187     -0.512906      0.571495
C     10.35284     15.36773     14.38384         0.008236      0.243658      0.509192
C      6.59456     10.35284      5.61067        -0.513194      0.055360     -0.357631
C      6.59456     10.62556     15.36773        -0.973574      0.232745      0.762948
C     14.38384     10.62556      5.61067         0.732098      0.040118     -0.958560
C     14.38384     10.35284     15.36773         0.907130     -0.121495      0.402358
C      5.61067      6.59456     10.35284        -0.900261     -1.029348     -0.509937
C     15.36773      6.59456     10.62556         0.723053      0.001726     -0.242031
C      5.61067     14.38384     10.62556        -0.237153      0.650630      0.015792
C     15.36773     14.38384     10.35284         0.301203      1.381442      0.037614
C      5.61067     10.35284      6.59456        -0.273995      0.014260     -0.678938
C     15.36773     10.62556      6.59456         0.455273     -0.383307     -1.063410
C      5.61067     10.62556     14.38384        -0.455238      0.009773      1.067510
C     15.36773     10.35284     14.38384         0.451522     -0.062315      0.905651
C     10.35284      6.59456      5.61067        -0.108444     -0.962724     -0.375377
C     10.62556      6.59456     15.36773         0.082537     -0.710976      0.513082
C     10.62556     14.38384      5.61067         0.151784      1.025133     -0.386386
C     10.35284     14.38384     15.36773        -0.019045      1.022882      0.494897
C      6.59456      5.61067     10.35284        -0.596271     -1.247522      0.075831
C      6.59456     15.36773     10.62556        -0.955861      0.166161      0.115945
C     14.38384      5.61067     10.62556        -0.150276     -0.505085     -0.318312
C     14.38384     15.36773     10.35284         0.205443      0.632628     -0.076401
C     10.40319      3.19606      7.29314         0.003538      0.823545     -0.589419
C     10.35913      4.25547      6.23373         0.027245     -0.528558      0.129886
C      0.08601      7.29314      7.29314        -0.023723     -0.978037     -0.241700
C      0.13007      6.23373      6.23373        -0.067689      0.405761      0.337922
C      0.08601      3.19606      3.19606         0.052793      1.285894      0.157053
C      0.13007      4.25547      4.25547        -0.016236     -0.341884     -0.442133
C     10.40319      7.29314      3.19606        -0.011243     -0.533235      0.243149
C     10.35913      6.23373      4.25547        -0.021803      0.129007     -0.702831
C      7.29314     10.40319      3.19606        -0.350899      0.024448      0.382571
C      6.23373     10.35913      4.25547         0.223060      0.085111     -0.098988
C      7.29314      0.08601      7.29314        -1.053435     -0.086367     -0.403191
C      6.23373      0.13007      6.23373         0.653073     -0.192101      0.417069
C      3.19606      0.08601      3.19606         1.169300     -0.019825      0.335926
C      4.25547      0.13007      4.25547        -0.634304     -0.160545     -0.198250
C      3.19606     10.40319      7.29314         0.555531      0.030912     -0.288910
C      4.25547     10.35913      6.23373        -0.236231      0.097428      0.213106
C      3.19606      7.29314     10.40319         0.322554     -0.706737      0.039142
C      4.25547      6.23373     10.35913        -1.068012      0.081583      0.183235
C      7.29314      7.29314      0.08601        -0.484718     -0.499360     -0.017511
C      6.23373      6.23373      0.13007         0.500611      0.322123      0.021636
C      3.19606      3.19606      0.08601         0.568137      0.421167     -0.021508
C      4.25547      4.25547      0.13007        -0.042953     -0.764026     -0.106925
C      7.29314      3.19606     10.40319        -0.394339      0.501835      0.053024
C      6.23373      4.25547     10.35913         0.570226     -0.734212      0.202166
O     10.43466      3.58206      8.50569         0.015852      0.117352      0.537349
O     10.54374     17.39634      8.50569         0.052490     -0.032714      0.292497
O     10.54374      3.58206     12.47271        -0.003199     -0.073185     -0.159463
O     10.43466     17.39634     12.47271        -0.037361     -0.119791     -0.435925
O      8.50569     10.43466      3.58206         0.479338     -0.032877      0.095181
O      8.50569     10.54374     17.39634         0.836711     -0.069449     -0.171885
O     12.47271     10.54374      3.58206        -0.874100      0.131482      0.107153
O     12.47271     10.43466     17.39634        -0.613764      0.026182     -0.166198
O      3.58206      8.50569     10.43466         0.186546      0.768980     -0.021652
O     17.39634      8.50569     10.54374        -0.147175      0.674477      0.027597
O      3.58206     12.47271     10.54374         0.108868     -0.554398      0.053569
O     17.39634     12.47271     10.43466        -0.168900     -0.600217     -0.046474
O      3.58206     10.43466      8.50569         0.083853     -0.048622      0.421908
O     17.39634     10.54374      8.50569         0.041407      0.094744      0.380451
O      3.58206     10.54374     12.47271        -0.018635      0.028877     -0.270866
O     17.39634     10.43466     12.47271        -0.150605     -0.030874     -0.547963
O     10.43466      8.50569      3.58206        -0.028443      0.615287      0.172418
O     10.54374      8.50569     17.39634        -0.097941      0.803766     -0.217582
O     10.54374     12.47271      3.58206         0.104488     -0.957067      0.152964
O     10.43466     12.47271     17.39634         0.059891     -0.670478     -0.162982
O      8.50569      3.58206     10.43466         0.569680      0.141270     -0.047284
O      8.50569     17.39634     10.54374         0.566284     -0.151724      0.011361
O     12.47271      3.58206     10.54374        -0.710965      0.149843      0.017995
O     12.47271     17.39634     10.43466        -0.471343     -0.090560     -0.032154
O     11.90042     11.90042     19.56718        -0.324593     -0.281920      0.245287
O     19.56718     19.56718     19.56718         0.297745      0.316566      0.214665
O     19.56718     11.90042     11.90042         0.343587     -0.276532     -0.240864
O     11.90042     19.56718     11.90042        -0.271323      0.350634     -0.242518
O      9.45224      1.03696      9.45224        -0.027794      0.086997     -0.129948
O      1.03696      9.45224      9.45224         0.061164     -0.028143     -0.121674
O      1.03696      1.03696      1.03696         0.068216      0.096012      0.098827
O      9.45224      9.45224      1.03696        -0.044746     -0.034740      0.082413
Zr     10.48920      2.52580     10.48920        -0.067692     -0.209805      0.072908
Zr     10.48920     18.45260     10.48920         0.019783      0.063274      0.121314
Zr     10.48920     10.48920      2.52580        -0.320424     -0.348593     -0.374328
Zr     10.48920     10.48920     18.45260         0.147328     -0.004477      0.396416
Zr      2.52580     10.48920     10.48920        -0.171617      0.028378     -0.059037
Zr     18.45260     10.48920     10.48920         0.162181     -0.019441      0.087613
Pd     12.92846      8.42484      9.85941        -0.058820      0.093507     -0.089921
Pd      6.45268      9.54445     10.36413        -0.042641      0.068445     -0.113350
Pd      6.96866     11.64648     11.80858        -0.061734      0.054325     -0.063854
Pd     12.35344     13.49307      7.23785        -0.018154     -0.178129      0.007343
Pd     12.12538      7.90967      7.18168         0.044470     -0.041857      0.008609
Pd      8.49703      7.31615      6.86454        -0.012478     -0.020062      0.050340
Pd     11.44095     11.50156      5.62431         0.007132     -0.007759      0.079475
Pd     14.55250      8.87041      7.81210        -0.073204     -0.090817     -0.085162
Pd      9.85487     11.78661      7.94177         0.017661      0.074242      0.055252
Pd      7.07349      7.13909     12.00396        -0.045893      0.010609     -0.021376
Pd      6.37649      7.51186      8.39864         0.008872      0.043609      0.121809
Pd      7.24095      9.23350     13.52009         0.117525     -0.258579     -0.035916
Pd     11.39547      6.26940      9.24292         0.065231      0.004677     -0.044210
Pd     10.00752      9.55001      6.48251        -0.027116     -0.041807      0.065988
Pd      9.08046     13.96742      9.38437         0.005826      0.007214     -0.035564
Pd     10.89784      7.40028     11.51162         0.024655     -0.087912     -0.069961
Pd     10.45015      9.07302      9.22277         0.018881      0.034085     -0.096788
Pd      9.43099     11.55124     10.56507        -0.041293     -0.006314     -0.040213
Pd      8.83495      7.11581      9.57562         0.037015     -0.061564     -0.037057
Pd      9.15422      7.39221     13.54375        -0.070881      0.049163      0.014216
Pd      8.84039      9.17254     11.36771        -0.052231      0.049060      0.117718
Pd     12.25984     10.55123      7.97022        -0.065238     -0.084425     -0.027863
Pd      7.21882     11.94484      9.13077         0.060646     -0.001800      0.064268
Pd      8.10602      9.61417      8.29880        -0.046316      0.011866      0.049548
Pd     14.02579      6.35712      8.51140        -0.063053      0.112876     -0.011412
Pd     13.28417      8.44586     12.43433        -0.141049      0.102778      0.007363
Pd      9.05432     11.39784     13.31931         0.145948      0.129145     -0.014369
Pd     13.98619     12.20929      8.88104        -0.049981      0.043741      0.089933
Pd     13.18275     11.10530     13.12561        -0.004381     -0.024236      0.061546
Pd     14.57158     10.35230     10.74421        -0.060717     -0.009157      0.069528
Pd     11.92837     10.72178     10.76234         0.068266     -0.121700     -0.138029
Pd     11.56143     13.16427      9.70446        -0.051967      0.004871      0.028256
Pd     13.65745     13.01784     11.49177        -0.103758      0.021953      0.065048
Pd     11.14848     12.78204     12.36543         0.131028      0.003576     -0.018575
Pd     11.24529     11.59470     14.86518        -0.050062     -0.122750     -0.047114
Pd     10.96634      9.60413     12.97670         0.063301     -0.013005      0.055903
Pd      9.49256      9.55214     15.22215         0.086018      0.015832      0.070874
Pd      8.71525     13.77706     12.04353         0.002870     -0.079646     -0.000972
