152
# total energy = -1024.30465251 eVH     10.35389      5.87395      7.64558         0.469350      0.043006      0.736749
H     10.62451     15.10445      7.64558         0.010147     -0.187753      0.586424
H     10.62451      5.87395     13.33282         0.111491      0.157841     -0.590623
H     10.35389     15.10445     13.33282        -0.413456     -0.054114     -0.769025
H      7.64558     10.35389      5.87395         0.342296      0.009704      0.173544
H      7.64558     10.62451     15.10445         0.881437     -0.352862     -0.021139
H     13.33282     10.62451      5.87395        -0.764360     -0.052269      0.152527
H     13.33282     10.35389     15.10445        -0.871736     -0.388275      0.192004
H      5.87395      7.64558     10.35389         0.209693      0.603125     -0.067126
H     15.10445      7.64558     10.62451        -0.141078      0.398903     -0.042095
H      5.87395     13.33282     10.62451         0.162944     -0.521149     -0.111145
H     15.10445     13.33282     10.35389        -0.083968     -1.167535      0.009503
H      5.87395     10.35389      7.64558         0.134907      0.137491      0.508274
H     15.10445     10.62451      7.64558         0.042221      0.075096      1.030204
H      5.87395     10.62451     13.33282         0.107768     -0.045598     -0.418799
H     15.10445     10.35389     13.33282        -0.117440     -0.160876     -0.575727
H     10.35389      7.64558      5.87395         0.030780      0.971450      0.247625
H     10.62451      7.64558     15.10445         0.011997      0.279331     -0.176355
H     10.62451     13.33282      5.87395        -0.086148     -0.435132      0.325658
H     10.35389     13.33282     15.10445        -0.443401     -0.639553     -0.024386
H      7.64558      5.87395     10.35389         0.480258      0.119907      0.033631
H      7.64558     15.10445     10.62451         0.889170     -0.259428     -0.030410
H     13.33282      5.87395     10.62451        -0.575305      0.137893     -0.077699
H     13.33282     15.10445     10.35389        -0.648591     -0.053787      0.225712
H     12.45634     12.45634     19.01126         0.238513      0.275287     -0.235592
H     19.01126     19.01126     19.01126        -0.252359     -0.246379     -0.242578
H     19.01126     12.45634     12.45634        -0.262388      0.268343      0.221299
H     12.45634     19.01126     12.45634         0.231727     -0.264454      0.242205
C     10.35284      5.61067      6.59456        -0.192929     -0.622840      0.063033
C     10.62556     15.36773      6.59456        -0.022712      0.372863     -0.761595
C     10.62556      5.61067     14.38384        -0.013669     -0.070353      0.713580
C     10.35284     15.36773     14.38384         0.149623      0.724853      0.192070
C      6.59456     10.35284      5.61067        -0.372690     -0.024107     -0.273453
C      6.59456     10.62556     15.36773        -1.021311      0.355015      0.375601
C     14.38384     10.62556      5.61067         0.417566      0.322013     -0.610974
C     14.38384     10.35284     15.36773         0.961033     -0.009310      0.344874
C      5.61067      6.59456     10.35284        -0.387262     -0.453603      0.262225
C     15.36773      6.59456     10.62556         0.196001     -0.522952      0.029657
C      5.61067     14.38384     10.62556        -0.186531      0.581481      0.013402
C     15.36773     14.38384     10.35284         0.355090      0.025666     -0.133191
C      5.61067     10.35284      6.59456        -0.310888     -0.066528     -0.930870
C     15.36773     10.62556      6.59456         0.789379     -0.303116     -1.038595
C      5.61067     10.62556     14.38384        -0.487676      0.009173      0.285688
C     15.36773     10.35284     14.38384         0.661718     -0.102508      1.108476
C     10.35284      6.59456      5.61067        -0.246248     -0.623643     -0.849627
C     10.62556      6.59456     15.36773         0.051308     -0.292342      0.078624
C     10.62556     14.38384      5.61067         0.101126      1.217225     -0.435757
C     10.35284     14.38384     15.36773         0.222796      0.120526      0.704315
C      6.59456      5.61067     10.35284        -0.351503     -0.731102      0.076191
C      6.59456     15.36773     10.62556        -1.208882      0.280662      0.079720
C     14.38384      5.61067     10.62556         0.916327     -0.280401      0.026371
C     14.38384     15.36773     10.35284        -0.505335      0.762840     -0.323032
C     10.40319      3.19606      7.29314        -0.016235      0.826814     -0.391370
C     10.35913      4.25547      6.23373         0.044535     -0.456976      0.569344
C      0.08601      7.29314      7.29314        -0.017586     -0.488506     -0.349427
C      0.13007      6.23373      6.23373        -0.018948      0.017866      0.095614
C      0.08601      3.19606      3.19606         0.000135      1.235938      0.186987
C      0.13007      4.25547      4.25547        -0.051723     -0.219479     -0.218681
C     10.40319      7.29314      3.19606        -0.003390     -1.035327      0.389680
C     10.35913      6.23373      4.25547         0.023739      0.466059     -0.649352
C      7.29314     10.40319      3.19606        -0.368023      0.042435      0.801296
C      6.23373     10.35913      4.25547         0.216416      0.087775     -0.112585
C      7.29314      0.08601      7.29314        -0.591802     -0.022056     -0.266312
C      6.23373      0.13007      6.23373         0.383345     -0.064590      0.458558
C      3.19606      0.08601      3.19606         0.909066     -0.012169      0.343186
C      4.25547      0.13007      4.25547        -0.107000     -0.048819     -0.505357
C      3.19606     10.40319      7.29314         0.469798     -0.002210     -0.777314
C      4.25547     10.35913      6.23373        -0.257548      0.104518      0.247647
C      3.19606      7.29314     10.40319         0.489625     -1.342621     -0.043838
C      4.25547      6.23373     10.35913        -0.383744      0.814649      0.052663
C      7.29314      7.29314      0.08601        -0.410986     -0.228557     -0.008624
C      6.23373      6.23373      0.13007         0.161855      0.144337     -0.014238
C      3.19606      3.19606      0.08601         0.248548      0.260508     -0.020002
C      4.25547      4.25547      0.13007        -0.103025     -0.051149      0.017507
C      7.29314      3.19606     10.40319        -0.363470      0.679773      0.010871
C      6.23373      4.25547     10.35913         1.109450      0.036208      0.010032
O     10.43466      3.58206      8.50569        -0.029958      0.057797      0.448029
O     10.54374     17.39634      8.50569        -0.004274     -0.087348      0.433918
O     10.54374      3.58206     12.47271         0.044311     -0.095614     -0.138818
O     10.43466     17.39634     12.47271        -0.057031     -0.049682     -0.474911
O      8.50569     10.43466      3.58206         0.308526     -0.032633     -0.045807
O      8.50569     10.54374     17.39634         0.681082      0.026582     -0.169529
O     12.47271     10.54374      3.58206        -0.734555     -0.035410      0.140605
O     12.47271     10.43466     17.39634        -0.432866     -0.027032     -0.038754
O      3.58206      8.50569     10.43466         0.139387      1.085450     -0.003262
O     17.39634      8.50569     10.54374        -0.084154      0.411656      0.064646
O      3.58206     12.47271     10.54374         0.068364     -0.412185      0.040087
O     17.39634     12.47271     10.43466        -0.161424     -0.696989      0.003708
O      3.58206     10.43466      8.50569         0.027734     -0.072285      0.662490
O     17.39634     10.54374      8.50569        -0.066967      0.043950      0.337654
O      3.58206     10.54374     12.47271        -0.008446      0.025382     -0.302536
O     17.39634     10.43466     12.47271        -0.245068      0.018468     -0.742196
O     10.43466      8.50569      3.58206         0.113482      0.834482      0.198372
O     10.54374      8.50569     17.39634         0.035836      0.674310     -0.162190
O     10.54374     12.47271      3.58206        -0.013778     -1.015829      0.202102
O     10.43466     12.47271     17.39634        -0.028585     -0.885337     -0.195047
O      8.50569      3.58206     10.43466         0.525163      0.104021     -0.018448
O      8.50569     17.39634     10.54374         0.529743     -0.208482     -0.014327
O     12.47271      3.58206     10.54374        -0.466661      0.155737      0.056713
O     12.47271     17.39634     10.43466        -0.382145      0.040947     -0.009167
O     11.90042     11.90042     19.56718        -0.274927     -0.324803      0.260860
O     19.56718     19.56718     19.56718         0.281746      0.284423      0.287124
O     19.56718     11.90042     11.90042         0.291138     -0.303184     -0.198998
O     11.90042     19.56718     11.90042        -0.269844      0.279322     -0.246596
O      9.45224      1.03696      9.45224        -0.085895      0.055023     -0.054039
O      1.03696      9.45224      9.45224         0.035298     -0.172841     -0.111526
O      1.03696      1.03696      1.03696         0.005704      0.115623      0.213405
O      9.45224      9.45224      1.03696        -0.061467     -0.088178      0.132862
Zr     10.48920      2.52580     10.48920        -0.025136     -0.120812     -0.173728
Zr     10.48920     18.45260     10.48920         0.020005      0.234067     -0.030069
Zr     10.48920     10.48920      2.52580        -0.095804     -0.177914     -0.542299
Zr     10.48920     10.48920     18.45260        -0.036108      0.037614      0.464997
Zr      2.52580     10.48920     10.48920        -0.369699      0.312655      0.107235
Zr     18.45260     10.48920     10.48920         0.202903      0.038500     -0.246930
Pd      8.55960      9.90746     13.22927         0.000767     -0.035329     -0.032612
Pd     10.53481      9.50703     10.26421        -0.080179      0.025944      0.051129
Pd     13.34891      8.73111     12.48443        -0.028002      0.003397     -0.001351
Pd     10.43880     10.64258     15.09241        -0.007670      0.016512     -0.015927
Pd     12.97171     11.35446     13.47381        -0.006240     -0.003323      0.009729
Pd     14.94825     10.70399     11.30134        -0.025489      0.000639      0.021637
Pd      6.83811      7.84517     12.51459        -0.012846     -0.035675     -0.039885
Pd      9.22663      7.23240      9.57146        -0.011830      0.019284      0.014081
Pd      9.50863      7.55396     12.30688         0.000488      0.020050     -0.054463
Pd     11.75050      7.19416     10.94659        -0.015653     -0.025288     -0.000211
Pd     11.59838      7.86427      8.34900         0.022020     -0.049376     -0.037580
Pd      7.16123     11.74467     11.62102         0.011604     -0.015738     -0.008005
Pd      9.20622     14.34208      9.36150         0.023975     -0.014403     -0.013065
Pd      8.15180     12.39646     14.20293         0.013846      0.003375     -0.023145
Pd     14.14739     14.20328      8.35860         0.037384      0.018064     -0.039943
Pd     11.65494     13.33840      8.82627         0.050779      0.025726      0.016856
Pd     14.09685     11.62674      8.95582        -0.009073      0.023165      0.008605
Pd      8.74797     13.93522     12.13915        -0.000719     -0.002598     -0.034053
Pd     12.20407     13.92091     13.97630        -0.028248      0.005620      0.021484
Pd     11.38188     14.09488     11.36840         0.001097      0.006766     -0.024503
Pd     14.02108     13.42167     12.10010         0.036945     -0.031116      0.000960
Pd     12.32259     11.59361     10.89556        -0.040523     -0.012196      0.016950
Pd     12.90768     12.61845      6.61320        -0.006815      0.019881     -0.024209
Pd     13.90930      8.87484      7.58819         0.034629     -0.011711     -0.010340
Pd      6.95997      8.47240      8.49685         0.016983     -0.016641     -0.018861
Pd      5.55263     10.03451     10.22396        -0.005575      0.001971     -0.045130
Pd      9.35999      9.48911      7.55811         0.017091     -0.009795     -0.008357
Pd      8.50113      7.00977      6.96675        -0.004670     -0.018438     -0.008510
Pd      9.66831     11.94965     10.57153         0.003037     -0.030967     -0.000875
Pd     11.75267     10.64857      8.09246        -0.029107      0.024329      0.016677
Pd     11.71520      8.97925      5.91218         0.006576     -0.005358     -0.004949
Pd     10.48465     11.34999      5.78296        -0.001423      0.000044      0.035133
Ir     11.03835      9.66457     12.74431        -0.039017      0.004451     -0.017535
Ir     13.17528      9.30499      9.98470         0.018469     -0.009510      0.016941
Ir     10.51127     12.11492     12.94593        -0.010275      0.019421     -0.044602
Ir      7.69635     11.02475      9.13307         0.028199     -0.005728     -0.035290
Ir      9.49839     12.10374      8.01390         0.015073      0.012824      0.008854
Ir      8.05359      9.25670     10.79599         0.076927     -0.009871      0.043060
