152
# total energy = -1003.66710917 eVH     10.35389      5.87395      7.64558        -0.125940      0.174979      0.728668
H     10.62451     15.10445      7.64558        -0.410098     -0.097300      0.916758
H     10.62451      5.87395     13.33282         0.316910     -0.013954     -0.820869
H     10.35389     15.10445     13.33282         0.032154     -0.168637     -0.533620
H      7.64558     10.35389      5.87395         0.533721      0.081178     -0.015755
H      7.64558     10.62451     15.10445         0.717793      0.531121     -0.063486
H     13.33282     10.62451      5.87395        -0.574178     -0.120821      0.310642
H     13.33282     10.35389     15.10445        -0.592221     -0.101988     -0.071933
H      5.87395      7.64558     10.35389         0.052710      1.677083      0.226967
H     15.10445      7.64558     10.62451        -0.058232      0.632860      0.026338
H      5.87395     13.33282     10.62451         0.210325     -0.831616      0.138547
H     15.10445     13.33282     10.35389         0.001118     -1.144587      0.001001
H      5.87395     10.35389      7.64558        -0.001041      0.082515      0.717172
H     15.10445     10.62451      7.64558        -0.109788      0.682290      1.342702
H      5.87395     10.62451     13.33282        -0.026014      0.412697     -1.378042
H     15.10445     10.35389     13.33282         0.519912      0.044947     -1.027997
H     10.35389      7.64558      5.87395         0.277731      1.473720     -0.014767
H     10.62451      7.64558     15.10445         0.550942      0.996729     -0.074088
H     10.62451     13.33282      5.87395        -0.611566     -0.757610      0.158479
H     10.35389     13.33282     15.10445        -0.060046     -0.434050     -0.198409
H      7.64558      5.87395     10.35389         1.091318     -0.177991     -0.304730
H      7.64558     15.10445     10.62451         0.737156     -0.186658      0.081976
H     13.33282      5.87395     10.62451        -0.854385      0.087034      0.490940
H     13.33282     15.10445     10.35389        -0.325011     -0.087498     -0.035997
H     12.45634     12.45634     19.01126         0.268625      0.236266     -0.246030
H     19.01126     19.01126     19.01126        -0.267795     -0.262421     -0.224669
H     19.01126     12.45634     12.45634        -0.269549      0.254946      0.236684
H     12.45634     19.01126     12.45634         0.257727     -0.274960      0.230499
C     10.35284      5.61067      6.59456        -0.116452     -0.897836     -0.772850
C     10.62556     15.36773      6.59456         0.203218      0.344210     -0.470514
C     10.62556      5.61067     14.38384        -0.314259     -0.733705      0.692041
C     10.35284     15.36773     14.38384         0.001694      0.214673      0.597636
C      6.59456     10.35284      5.61067        -0.801879      0.077748     -0.485342
C      6.59456     10.62556     15.36773        -0.734228      0.195181      0.766962
C     14.38384     10.62556      5.61067         0.867517      0.026698     -0.851889
C     14.38384     10.35284     15.36773         1.063027      0.005231      0.699023
C      5.61067      6.59456     10.35284        -0.741310     -0.726527     -0.340968
C     15.36773      6.59456     10.62556         0.691856      0.210750     -0.176289
C      5.61067     14.38384     10.62556        -0.355591      0.924162     -0.068716
C     15.36773     14.38384     10.35284         0.437408      1.258257     -0.246110
C      5.61067     10.35284      6.59456        -0.307060      0.002166     -0.865367
C     15.36773     10.62556      6.59456         0.311968     -0.243153     -0.896240
C      5.61067     10.62556     14.38384        -0.394657     -0.082073      1.140499
C     15.36773     10.35284     14.38384         0.070478     -0.013105      1.356634
C     10.35284      6.59456      5.61067        -0.093714     -1.230498     -0.445815
C     10.62556      6.59456     15.36773        -0.103974     -0.854104      0.718225
C     10.62556     14.38384      5.61067         0.010610      1.014244     -0.669926
C     10.35284     14.38384     15.36773        -0.024225      0.482973      0.272120
C      6.59456      5.61067     10.35284        -0.606642     -1.269136      0.174502
C      6.59456     15.36773     10.62556        -0.810685      0.309905      0.028186
C     14.38384      5.61067     10.62556         0.119132     -0.598970     -0.214949
C     14.38384     15.36773     10.35284         0.105932      0.556744     -0.033795
C     10.40319      3.19606      7.29314        -0.002707      0.367510     -1.036404
C     10.35913      4.25547      6.23373        -0.019089     -0.456771      0.128810
C      0.08601      7.29314      7.29314        -0.048686     -0.932426     -0.273824
C      0.13007      6.23373      6.23373         0.040424      0.388815      0.594218
C      0.08601      3.19606      3.19606         0.007295      0.990696      0.311756
C      0.13007      4.25547      4.25547         0.039599     -0.532967     -0.377539
C     10.40319      7.29314      3.19606        -0.013182     -0.512721      0.204224
C     10.35913      6.23373      4.25547        -0.009185      0.217395     -0.592953
C      7.29314     10.40319      3.19606        -0.306083      0.012546      0.188234
C      6.23373     10.35913      4.25547         0.191359     -0.010464     -0.261719
C      7.29314      0.08601      7.29314        -0.955743     -0.085830     -0.355998
C      6.23373      0.13007      6.23373         0.634169     -0.200320      0.326665
C      3.19606      0.08601      3.19606         1.042670     -0.040281      0.296652
C      4.25547      0.13007      4.25547        -0.552306     -0.166674     -0.384140
C      3.19606     10.40319      7.29314         0.453007      0.015505     -0.218323
C      4.25547     10.35913      6.23373        -0.222228      0.001908      0.150345
C      3.19606      7.29314     10.40319         0.281340     -0.456186      0.042018
C      4.25547      6.23373     10.35913        -0.965425     -0.059740      0.093364
C      7.29314      7.29314      0.08601        -0.463413     -0.381693     -0.025993
C      6.23373      6.23373      0.13007         0.625196      0.213659      0.058106
C      3.19606      3.19606      0.08601         0.812872      0.448316     -0.018368
C      4.25547      4.25547      0.13007        -0.132580     -0.910001     -0.047564
C      7.29314      3.19606     10.40319        -0.386232      0.403305      0.033529
C      6.23373      4.25547     10.35913         0.390408     -0.704999      0.121555
O     10.43466      3.58206      8.50569         0.098536      0.241317      0.840822
O     10.54374     17.39634      8.50569         0.054143     -0.061020      0.324886
O     10.54374      3.58206     12.47271         0.016047      0.003588     -0.337113
O     10.43466     17.39634     12.47271        -0.035696     -0.120158     -0.382802
O      8.50569     10.43466      3.58206         0.510517     -0.033941      0.168458
O      8.50569     10.54374     17.39634         0.821255     -0.070794     -0.213677
O     12.47271     10.54374      3.58206        -0.851442      0.149288      0.188798
O     12.47271     10.43466     17.39634        -0.552938      0.017750     -0.199658
O      3.58206      8.50569     10.43466         0.184947      0.598032     -0.043489
O     17.39634      8.50569     10.54374        -0.150174      0.569563      0.036686
O      3.58206     12.47271     10.54374         0.091698     -0.503153      0.041133
O     17.39634     12.47271     10.43466        -0.172018     -0.523831     -0.047457
O      3.58206     10.43466      8.50569         0.123342     -0.022217      0.350105
O     17.39634     10.54374      8.50569        -0.007500      0.102882      0.356030
O      3.58206     10.54374     12.47271         0.025612      0.049568     -0.312749
O     17.39634     10.43466     12.47271        -0.145111     -0.029764     -0.371878
O     10.43466      8.50569      3.58206        -0.035637      0.612152      0.198731
O     10.54374      8.50569     17.39634        -0.076112      0.795432     -0.177976
O     10.54374     12.47271      3.58206         0.166729     -0.837775      0.208173
O     10.43466     12.47271     17.39634        -0.027326     -0.311883      0.016443
O      8.50569      3.58206     10.43466         0.576198      0.148330     -0.056003
O      8.50569     17.39634     10.54374         0.588573     -0.189832      0.008490
O     12.47271      3.58206     10.54374        -0.753766      0.100669      0.013118
O     12.47271     17.39634     10.43466        -0.526064     -0.140529     -0.036381
O     11.90042     11.90042     19.56718        -0.307375     -0.244186      0.255429
O     19.56718     19.56718     19.56718         0.308764      0.320390      0.227471
O     19.56718     11.90042     11.90042         0.345877     -0.271996     -0.256985
O     11.90042     19.56718     11.90042        -0.291139      0.356850     -0.237257
O      9.45224      1.03696      9.45224        -0.013035      0.113761     -0.118040
O      1.03696      9.45224      9.45224         0.063518     -0.003673     -0.118229
O      1.03696      1.03696      1.03696         0.055577      0.107000      0.091917
O      9.45224      9.45224      1.03696        -0.029689     -0.012693      0.098238
Zr     10.48920      2.52580     10.48920        -0.178218     -0.322397      0.216644
Zr     10.48920     18.45260     10.48920         0.037113      0.049246      0.084489
Zr     10.48920     10.48920      2.52580        -0.242381     -0.225271     -0.360839
Zr     10.48920     10.48920     18.45260         0.073597      0.007618      0.326330
Zr      2.52580     10.48920     10.48920        -0.125556     -0.146826     -0.016123
Zr     18.45260     10.48920     10.48920         0.074328     -0.066062      0.081231
Pd     12.43018      8.25731      9.98315        -0.090280      0.028126     -0.043195
Pd      7.20438      9.47594     10.56120        -0.087097      0.058916     -0.014893
Pd      6.85891     11.71832     11.93418         0.043863     -0.053086      0.129447
Pd     12.14816     13.65573      7.52486         0.031977      0.029693     -0.029726
Pd     11.77164      7.89956      7.43143         0.050070     -0.048398     -0.091662
Pd      8.73795      7.52730      7.09345        -0.027361     -0.035221     -0.096715
Pd     11.71362     11.65599      5.80804        -0.078212      0.028914     -0.046973
Pd     14.18201      8.93380      7.67896         0.086350     -0.034968      0.114747
Pd      9.78703     11.96790      7.84885         0.068385      0.020044     -0.004369
Pd      7.08950      7.02479     12.04568         0.096215      0.049251      0.043707
Pd      6.64058      7.71160      8.58756        -0.020111      0.055209     -0.007399
Pd      7.27363      9.18887     13.45485        -0.066514      0.016151      0.078575
Pd     11.39236      5.83947      9.30185        -0.026154      0.072282     -0.088474
Pd     10.11138      9.74495      6.40114        -0.058679     -0.034088     -0.067664
Pd      8.98593     14.00229      9.32467         0.027302      0.058825     -0.009771
Pd     11.03623      6.76039     11.70569        -0.070455      0.056383     -0.098087
Pd     10.13566      9.29869      9.15491         0.117420     -0.092303      0.028465
Pd      9.13906     11.45433     10.40738         0.137073     -0.155014      0.061391
Pd      9.05727      7.07740      9.78074        -0.068433     -0.010819      0.155162
Pd      8.79339      7.04306     14.04987         0.026326      0.133499     -0.102771
Pd      9.36193      8.79273     11.85193        -0.055992      0.084939     -0.151703
Pd     12.20674     10.71606      8.26243        -0.000532     -0.037656     -0.005754
Pd      6.89966     12.14908      9.22952         0.043087     -0.091771     -0.039321
Pd      7.96421      9.99529      8.05027        -0.133664      0.043415     -0.029377
Pd     13.93465      6.47968      8.57289        -0.032369      0.074302      0.018061
Pd     13.52207      7.61231     12.30611         0.071643      0.071864     -0.037488
Pd      9.23620     11.17315     13.10513        -0.076875     -0.002829     -0.008617
Pd     14.11067     12.48327      8.73383         0.041711      0.006762      0.048370
Pd     13.39949     10.30220     12.68939         0.152591     -0.016989      0.203441
Pd     14.17599     10.15315     10.11992         0.047677      0.084073      0.068618
Pd     11.45157     10.50074     11.16409        -0.174942     -0.004123     -0.133485
Pd     11.36696     13.01216      9.93145        -0.020917     -0.098686     -0.079860
Pd     13.58162     12.51540     11.36348         0.066945      0.048274     -0.002159
Pd     11.29198     12.81305     12.53017         0.031867      0.046043     -0.075854
Pd     11.49194     11.19954     14.57083         0.104476     -0.023845      0.051239
Pd     11.40521      8.76204     13.43673        -0.091182      0.042092      0.038566
Pd      9.49572      9.49196     15.15366        -0.010252      0.078712     -0.035671
Pd      8.82999     13.59282     11.99248         0.047920      0.055903     -0.046456
