152
# total energy = -1005.11090072 eVH     10.35389      5.87395      7.64558         0.180270      0.085450      0.592959
H     10.62451     15.10445      7.64558        -0.104402     -0.153402      0.464526
H     10.62451      5.87395     13.33282         0.484723      0.072298     -0.825110
H     10.35389     15.10445     13.33282         0.019853     -0.154671     -0.409238
H      7.64558     10.35389      5.87395         0.337492      0.031990      0.162864
H      7.64558     10.62451     15.10445         0.970606      0.539613      0.044263
H     13.33282     10.62451      5.87395        -0.512606      0.345447      0.035037
H     13.33282     10.35389     15.10445        -0.891582     -0.125555      0.033501
H      5.87395      7.64558     10.35389         0.303100      1.278534      0.054085
H     15.10445      7.64558     10.62451        -0.098466      0.512665      0.355791
H      5.87395     13.33282     10.62451         0.167912     -0.560656      0.051264
H     15.10445     13.33282     10.35389        -0.067516     -0.946150     -0.225046
H      5.87395     10.35389      7.64558         0.225082      0.048648      0.442444
H     15.10445     10.62451      7.64558        -0.133421      0.573890      0.768095
H      5.87395     10.62451     13.33282        -0.055008      0.516266     -1.215456
H     15.10445     10.35389     13.33282        -0.079700     -0.056948     -0.632931
H     10.35389      7.64558      5.87395         0.348532      1.178658      0.020188
H     10.62451      7.64558     15.10445         0.600571      0.702950     -0.212620
H     10.62451     13.33282      5.87395        -0.379045     -0.800973      0.300358
H     10.35389     13.33282     15.10445        -0.132975     -0.467302     -0.307160
H      7.64558      5.87395     10.35389         0.707603      0.067317     -0.208820
H      7.64558     15.10445     10.62451         0.796149     -0.175369      0.022418
H     13.33282      5.87395     10.62451        -0.708876      0.152503      0.579772
H     13.33282     15.10445     10.35389        -0.420934     -0.108540     -0.126250
H     12.45634     12.45634     19.01126         0.251043      0.275149     -0.228905
H     19.01126     19.01126     19.01126        -0.282764     -0.257793     -0.227157
H     19.01126     12.45634     12.45634        -0.280739      0.262283      0.215399
H     12.45634     19.01126     12.45634         0.240667     -0.260885      0.269044
C     10.35284      5.61067      6.59456        -0.263162     -0.812005     -0.136314
C     10.62556     15.36773      6.59456         0.040941      0.268653     -0.257732
C     10.62556      5.61067     14.38384        -0.130501     -0.456375      0.415465
C     10.35284     15.36773     14.38384         0.024379      0.196108      0.355016
C      6.59456     10.35284      5.61067        -0.355269      0.010198     -0.192562
C      6.59456     10.62556     15.36773        -0.878871      0.140340      0.684860
C     14.38384     10.62556      5.61067        -0.006979     -0.429735     -0.764986
C     14.38384     10.35284     15.36773         1.100883     -0.083530      0.138723
C      5.61067      6.59456     10.35284        -0.732058     -0.273434     -0.193039
C     15.36773      6.59456     10.62556         0.540766      0.076388     -0.376032
C      5.61067     14.38384     10.62556        -0.180394      0.530723      0.009514
C     15.36773     14.38384     10.35284         0.250403      0.904530      0.030579
C      5.61067     10.35284      6.59456        -0.309088      0.021582     -0.827878
C     15.36773     10.62556      6.59456         0.544801     -0.192538      0.220542
C      5.61067     10.62556     14.38384        -0.758075      0.009941      0.879977
C     15.36773     10.35284     14.38384         0.478530     -0.065730      1.032829
C     10.35284      6.59456      5.61067        -0.102063     -0.881718     -0.620571
C     10.62556      6.59456     15.36773         0.001496     -0.560832      0.494611
C     10.62556     14.38384      5.61067         0.185524      1.206595     -0.302534
C     10.35284     14.38384     15.36773        -0.006866      0.932278      0.422593
C      6.59456      5.61067     10.35284         0.366660     -1.049622      0.352877
C      6.59456     15.36773     10.62556        -0.938399      0.219321      0.092465
C     14.38384      5.61067     10.62556         0.284245     -0.618873     -0.344482
C     14.38384     15.36773     10.35284         0.182241      0.352524     -0.069858
C     10.40319      3.19606      7.29314         0.002981      0.993495     -0.417167
C     10.35913      4.25547      6.23373         0.069879     -0.558703      0.130245
C      0.08601      7.29314      7.29314        -0.037594     -1.007460     -0.174257
C      0.13007      6.23373      6.23373        -0.073211      0.219305      0.392468
C      0.08601      3.19606      3.19606         0.026713      1.433429      0.228087
C      0.13007      4.25547      4.25547        -0.017113     -0.513427     -0.303072
C     10.40319      7.29314      3.19606        -0.006704     -0.336338      0.259061
C     10.35913      6.23373      4.25547         0.030069      0.021560     -0.765025
C      7.29314     10.40319      3.19606        -0.272846      0.020094      0.535643
C      6.23373     10.35913      4.25547         0.125809      0.048792     -0.068974
C      7.29314      0.08601      7.29314        -1.055382     -0.086735     -0.267378
C      6.23373      0.13007      6.23373         0.871521     -0.210650      0.408580
C      3.19606      0.08601      3.19606         0.862560     -0.039797      0.534187
C      4.25547      0.13007      4.25547        -0.573328     -0.113334     -0.672163
C      3.19606     10.40319      7.29314         0.611543     -0.006873     -0.740691
C      4.25547     10.35913      6.23373        -0.258680      0.076855      0.234542
C      3.19606      7.29314     10.40319         0.333178     -1.188780      0.020848
C      4.25547      6.23373     10.35913        -1.088805      0.062572      0.135197
C      7.29314      7.29314      0.08601        -0.444594     -0.417263     -0.022613
C      6.23373      6.23373      0.13007         0.607412      0.215630      0.014890
C      3.19606      3.19606      0.08601         0.463993      0.333142     -0.041900
C      4.25547      4.25547      0.13007        -0.119615     -0.600164     -0.049045
C      7.29314      3.19606     10.40319        -0.408599      0.488393      0.056141
C      6.23373      4.25547     10.35913         0.261528     -0.760346      0.157229
O     10.43466      3.58206      8.50569        -0.027802      0.014908      0.397155
O     10.54374     17.39634      8.50569         0.073984     -0.030832      0.255597
O     10.54374      3.58206     12.47271         0.027205     -0.128171     -0.111919
O     10.43466     17.39634     12.47271        -0.026528     -0.167257     -0.515541
O      8.50569     10.43466      3.58206         0.276320     -0.021328      0.009564
O      8.50569     10.54374     17.39634         0.877997     -0.062050     -0.158392
O     12.47271     10.54374      3.58206        -0.746152      0.082219      0.060595
O     12.47271     10.43466     17.39634        -0.496889      0.036443     -0.066517
O      3.58206      8.50569     10.43466         0.195757      1.049076     -0.062555
O     17.39634      8.50569     10.54374        -0.152612      0.594243      0.060946
O      3.58206     12.47271     10.54374         0.095483     -0.453837      0.029748
O     17.39634     12.47271     10.43466        -0.147434     -0.593465     -0.031154
O      3.58206     10.43466      8.50569         0.079723     -0.094019      0.615626
O     17.39634     10.54374      8.50569         0.017394      0.103715      0.353326
O      3.58206     10.54374     12.47271         0.039756      0.039850     -0.507971
O     17.39634     10.43466     12.47271        -0.237083     -0.040280     -0.656750
O     10.43466      8.50569      3.58206        -0.040618      0.446271      0.138259
O     10.54374      8.50569     17.39634        -0.083703      0.758749     -0.216179
O     10.54374     12.47271      3.58206         0.016447     -0.967470      0.102728
O     10.43466     12.47271     17.39634         0.076135     -0.876851     -0.233831
O      8.50569      3.58206     10.43466         0.596070      0.145161     -0.056195
O      8.50569     17.39634     10.54374         0.550687     -0.179511     -0.001583
O     12.47271      3.58206     10.54374        -0.617472      0.190153      0.005500
O     12.47271     17.39634     10.43466        -0.313690      0.037243     -0.045659
O     11.90042     11.90042     19.56718        -0.273926     -0.315208      0.212704
O     19.56718     19.56718     19.56718         0.327618      0.298640      0.214262
O     19.56718     11.90042     11.90042         0.318125     -0.260065     -0.236330
O     11.90042     19.56718     11.90042        -0.251652      0.305821     -0.336239
O      9.45224      1.03696      9.45224        -0.001422      0.060572     -0.156087
O      1.03696      9.45224      9.45224         0.078256     -0.062235     -0.191789
O      1.03696      1.03696      1.03696         0.114469      0.167932      0.008348
O      9.45224      9.45224      1.03696        -0.104640     -0.113896     -0.006327
Zr     10.48920      2.52580     10.48920        -0.085374     -0.197153     -0.004951
Zr     10.48920     18.45260     10.48920        -0.083952      0.166944      0.240648
Zr     10.48920     10.48920      2.52580        -0.066248     -0.464806     -0.166269
Zr     10.48920     10.48920     18.45260        -0.079905      0.067510      0.506474
Zr      2.52580     10.48920     10.48920        -0.323150      0.251455      0.343502
Zr     18.45260     10.48920     10.48920         0.160663      0.000503     -0.052402
Pd     13.65586      8.94060      9.15595        -0.094445      0.019985      0.041883
Pd      5.78056      9.74353      9.89903        -0.080065     -0.017283      0.046818
Pd      6.94859     11.23826     11.78197        -0.020398      0.014861     -0.061277
Pd     12.19327     13.05123      7.32731        -0.018366      0.112537      0.056113
Pd     12.20051      7.76046      7.09441        -0.115939      0.081489      0.041156
Pd      8.29816      7.08601      6.52800        -0.003484      0.018850      0.069885
Pd     10.83514     11.30703      5.56589        -0.001174      0.021462     -0.021382
Pd     14.70181      8.54056      6.72939         0.022156      0.000633     -0.013882
Pd      9.76479     11.71822      8.09138        -0.097545      0.058168      0.012525
Pd      6.65263      6.78018     12.33610         0.038828      0.046538     -0.071604
Pd      6.47047      7.49630      8.34228        -0.010374      0.022359     -0.021709
Pd      7.04442      8.97693     13.77102         0.043119     -0.010075      0.027331
Pd     11.74454      6.56828      9.43596        -0.094291      0.030779      0.023694
Pd      9.87686      9.24485      6.86760        -0.095388      0.009146     -0.046863
Pd      9.04618     13.91071      9.47618        -0.021530      0.004735     -0.022556
Pd     10.16695      7.11551     11.44571         0.065307     -0.011216     -0.016103
Pd     10.63832      9.00334      9.45048         0.129355      0.065715      0.150723
Pd      9.39715     11.20613     10.70028         0.018892      0.053030      0.009242
Pd      9.01932      6.98323      9.07571        -0.131845     -0.096570     -0.002874
Pd      8.87384      7.12776     13.71817         0.047073     -0.054612      0.047319
Pd      8.11295      8.79427     11.29937         0.000021      0.091271      0.045702
Pd     12.11017     10.43832      7.67680         0.004182     -0.009222      0.115543
Pd      7.22338     12.00195      9.22798        -0.004679     -0.009550     -0.037580
Pd      8.11747      9.55678      8.72435        -0.147720      0.025674      0.019085
Pd     14.26919      6.49688      8.46633         0.041960     -0.031576     -0.037645
Pd     12.58054      8.33380     11.52354         0.008569      0.021249      0.022202
Pd      8.85628     11.39841     13.55974         0.053289     -0.151966     -0.039926
Pd     13.86402     11.89286      9.07560         0.047481      0.056769     -0.024450
Pd     12.85612     10.72082     13.15235         0.018734     -0.059001     -0.001746
Pd     14.66603     10.37844     11.20272         0.050637     -0.054572     -0.055097
Pd     12.03292     10.77082     10.66763        -0.113709     -0.211653     -0.109921
Pd     11.47077     13.15599      9.87014         0.019047      0.040032      0.046911
Pd     13.51782     12.94460     11.67226         0.093794     -0.082372      0.009274
Pd     11.01578     12.60759     12.48901        -0.046498     -0.005916     -0.002469
Pd     11.11898     11.41703     14.97269         0.000313     -0.003953     -0.082593
Pd     10.47552      9.49790     12.69757        -0.032824      0.046200     -0.024671
Pd      9.44343      9.37268     15.20859        -0.053290      0.020454     -0.152251
Pd      8.57260     13.49127     12.04396        -0.016465      0.065030     -0.101361
