152
# total energy = -1061.39174763 eVH     10.35389      5.87395      7.64558        -0.137749      0.129537      0.985633
H     10.62451     15.10445      7.64558         0.259616     -0.081397      0.831738
H     10.62451      5.87395     13.33282        -0.139574      0.084607     -0.501892
H     10.35389     15.10445     13.33282         0.075815     -0.214259     -0.416680
H      7.64558     10.35389      5.87395         0.875979      0.113013      0.207809
H      7.64558     10.62451     15.10445         0.193137     -0.007145     -0.063313
H     13.33282     10.62451      5.87395        -0.643344     -0.014719      0.172525
H     13.33282     10.35389     15.10445        -0.326602     -0.077916     -0.055800
H      5.87395      7.64558     10.35389         0.138807      0.360715     -0.042961
H     15.10445      7.64558     10.62451        -0.133432      0.577998      0.248749
H      5.87395     13.33282     10.62451         0.129887     -0.563879      0.032538
H     15.10445     13.33282     10.35389        -0.240168     -0.437741      0.096112
H      5.87395     10.35389      7.64558         0.191347      0.203839      0.373489
H     15.10445     10.62451      7.64558        -0.170239     -0.215649      0.551361
H      5.87395     10.62451     13.33282         0.032108      0.129533     -0.722390
H     15.10445     10.35389     13.33282         0.087044     -0.276035     -0.719015
H     10.35389      7.64558      5.87395        -0.095632      0.434098      0.247800
H     10.62451      7.64558     15.10445         0.418535      0.688916     -0.102910
H     10.62451     13.33282      5.87395         0.214878     -0.583413      0.114806
H     10.35389     13.33282     15.10445         0.180584     -0.698788     -0.074361
H      7.64558      5.87395     10.35389         0.443564      0.156483     -0.078461
H      7.64558     15.10445     10.62451         0.446914     -0.168389      0.358885
H     13.33282      5.87395     10.62451        -0.366161      0.151672     -0.056817
H     13.33282     15.10445     10.35389        -0.553525     -0.253797      0.139669
H     12.45634     12.45634     19.01126         0.237823      0.264721     -0.242507
H     19.01126     19.01126     19.01126        -0.258022     -0.264255     -0.227283
H     19.01126     12.45634     12.45634        -0.232197      0.269497      0.241927
H     12.45634     19.01126     12.45634         0.284301     -0.210895      0.248718
C     10.35284      5.61067      6.59456         0.298257     -0.290300     -0.876787
C     10.62556     15.36773      6.59456        -0.190555      0.656490     -0.344460
C     10.62556      5.61067     14.38384         0.271002     -0.336530      0.511977
C     10.35284     15.36773     14.38384        -0.125734      0.262068      0.325286
C      6.59456     10.35284      5.61067        -0.821959     -0.142785     -0.214065
C      6.59456     10.62556     15.36773        -0.554281      0.058384      0.349790
C     14.38384     10.62556      5.61067         0.927609     -0.022758     -0.566121
C     14.38384     10.35284     15.36773         0.272759     -0.089241      0.369634
C      5.61067      6.59456     10.35284        -0.379125     -0.438250      0.045196
C     15.36773      6.59456     10.62556         0.276679     -0.674233     -0.138080
C      5.61067     14.38384     10.62556        -0.172804      0.562750     -0.274963
C     15.36773     14.38384     10.35284         0.390997      0.817075     -0.114713
C      5.61067     10.35284      6.59456        -0.267283     -0.131781     -0.174487
C     15.36773     10.62556      6.59456         0.215433      0.203804     -0.453323
C      5.61067     10.62556     14.38384        -0.356801     -0.022696      1.227527
C     15.36773     10.35284     14.38384         0.284982     -0.044871      0.984633
C     10.35284      6.59456      5.61067         0.052220     -0.305531     -0.454928
C     10.62556      6.59456     15.36773        -0.032369     -0.872863      0.251151
C     10.62556     14.38384      5.61067        -0.403367      0.020452     -0.807286
C     10.35284     14.38384     15.36773        -0.231835      0.904174      0.231471
C      6.59456      5.61067     10.35284        -0.392381     -0.282832      0.194031
C      6.59456     15.36773     10.62556        -0.510731      0.551626      0.019209
C     14.38384      5.61067     10.62556         0.416309     -0.319708      0.067698
C     14.38384     15.36773     10.35284         0.853484      0.276675     -0.064881
C     10.40319      3.19606      7.29314         0.000914      0.599937     -0.316745
C     10.35913      4.25547      6.23373        -0.000598     -0.485693      0.425009
C      0.08601      7.29314      7.29314        -0.019000     -0.864985     -0.483429
C      0.13007      6.23373      6.23373        -0.155813      0.860269      0.142818
C      0.08601      3.19606      3.19606        -0.012659      0.368880      0.378351
C      0.13007      4.25547      4.25547         0.064179     -0.170071     -0.636261
C     10.40319      7.29314      3.19606        -0.047546     -1.099304      0.843486
C     10.35913      6.23373      4.25547         0.012641      0.337999     -0.182989
C      7.29314     10.40319      3.19606        -1.117099     -0.073895      0.359120
C      6.23373     10.35913      4.25547         0.274968      0.028548     -0.630778
C      7.29314      0.08601      7.29314        -0.940509     -0.003296     -0.410307
C      6.23373      0.13007      6.23373         0.237810      0.031245      0.121574
C      3.19606      0.08601      3.19606         0.330148     -0.003752      0.389033
C      4.25547      0.13007      4.25547        -0.280117     -0.045933     -0.164656
C      3.19606     10.40319      7.29314         0.494909     -0.047204     -1.054658
C      4.25547     10.35913      6.23373        -0.296646     -0.054477      0.120521
C      3.19606      7.29314     10.40319         0.911742     -0.503255      0.009268
C      4.25547      6.23373     10.35913        -0.138854      0.164410     -0.000747
C      7.29314      7.29314      0.08601        -0.422942     -0.275725     -0.005735
C      6.23373      6.23373      0.13007         0.240209      0.074932     -0.139340
C      3.19606      3.19606      0.08601         0.335573      0.721441     -0.009639
C      4.25547      4.25547      0.13007        -0.397315     -0.213351      0.051543
C      7.29314      3.19606     10.40319        -0.210209      0.559060      0.020768
C      6.23373      4.25547     10.35913         0.037635     -0.279915      0.019298
O     10.43466      3.58206      8.50569        -0.020603      0.124357      0.353075
O     10.54374     17.39634      8.50569         0.056876      0.051328      0.307441
O     10.54374      3.58206     12.47271         0.041945      0.200825     -0.569897
O     10.43466     17.39634     12.47271         0.030733     -0.007213     -0.452473
O      8.50569     10.43466      3.58206         0.736490     -0.072628      0.055896
O      8.50569     10.54374     17.39634         0.913221      0.027792     -0.161862
O     12.47271     10.54374      3.58206        -0.345967      0.044149      0.068173
O     12.47271     10.43466     17.39634        -0.357285     -0.028556      0.059418
O      3.58206      8.50569     10.43466        -0.048730      0.366800     -0.081794
O     17.39634      8.50569     10.54374        -0.115813      0.434152      0.034401
O      3.58206     12.47271     10.54374         0.131869     -0.727986     -0.011485
O     17.39634     12.47271     10.43466        -0.250212     -0.668034     -0.013074
O      3.58206     10.43466      8.50569         0.130215     -0.041989      0.818110
O     17.39634     10.54374      8.50569         0.036484      0.044351      0.289491
O      3.58206     10.54374     12.47271         0.071368      0.018899     -0.449728
O     17.39634     10.43466     12.47271        -0.000566      0.017852     -0.304604
O     10.43466      8.50569      3.58206        -0.067017      0.577235     -0.085097
O     10.54374      8.50569     17.39634         0.022118      0.882689     -0.198300
O     10.54374     12.47271      3.58206         0.060525     -0.362165      0.088301
O     10.43466     12.47271     17.39634        -0.061620     -0.660074     -0.203989
O      8.50569      3.58206     10.43466         0.338869      0.065277     -0.052545
O      8.50569     17.39634     10.54374         0.508355     -0.135315      0.010049
O     12.47271      3.58206     10.54374        -0.393045      0.085650      0.028437
O     12.47271     17.39634     10.43466        -0.722542     -0.103103      0.062894
O     11.90042     11.90042     19.56718        -0.250006     -0.280114      0.229274
O     19.56718     19.56718     19.56718         0.289659      0.301138      0.245058
O     19.56718     11.90042     11.90042         0.232418     -0.298491     -0.287127
O     11.90042     19.56718     11.90042        -0.281597      0.179096     -0.259546
O      9.45224      1.03696      9.45224        -0.120775      0.110930     -0.084377
O      1.03696      9.45224      9.45224         0.147133     -0.133609     -0.166907
O      1.03696      1.03696      1.03696         0.137964      0.201483     -0.009518
O      9.45224      9.45224      1.03696        -0.213606     -0.165218      0.046799
Zr     10.48920      2.52580     10.48920         0.015424     -0.244410      0.178564
Zr     10.48920     18.45260     10.48920        -0.260263      0.258496     -0.230529
Zr     10.48920     10.48920      2.52580         0.287561      0.447116     -0.218707
Zr     10.48920     10.48920     18.45260         0.041414     -0.027513      0.506551
Zr      2.52580     10.48920     10.48920        -0.546715      0.061395      0.351919
Zr     18.45260     10.48920     10.48920         0.273113     -0.163539      0.030867
Pd      9.09035     14.50732      9.20839         0.054485     -0.032639     -0.017173
Pd      8.38014     13.25273     13.76043         0.005711     -0.031106      0.050026
Pd     12.01115     14.20213      8.74353         0.043032     -0.050660     -0.033899
Pd     12.29696     12.75976     10.90384        -0.104360      0.020465     -0.044344
Pd     11.85319      7.10023     12.05250        -0.032454     -0.015754     -0.019916
Pd     11.01997     15.31018     10.98005         0.036371     -0.026771      0.001290
Pd      9.62588     13.07398     11.42127         0.065830      0.050841     -0.014500
Pd     13.97695     12.49367      8.15717        -0.016452     -0.025526      0.021635
Pd     11.65619     11.72929      6.79413         0.009644      0.034276      0.049354
Pd      7.54550      8.51015      7.24621        -0.013119     -0.010246      0.020678
Pd      8.71675     11.97039      6.89635         0.009625      0.029879     -0.019544
Pd      9.82119      9.83346      8.04910         0.044620     -0.096878      0.020475
Pd      8.48787     14.61942      6.54998         0.012050     -0.005265      0.017256
Pd     12.15542      9.03715      6.92589        -0.020512      0.013537      0.000512
Pd     10.03496      9.97337      5.42615        -0.030774     -0.028815      0.030102
Pd      6.93719      9.16997     12.22560        -0.022045     -0.015736     -0.040455
Pd     12.43758      6.52589      7.78639        -0.022522     -0.043154     -0.006370
Pd      5.61266     10.58394     10.06165         0.053586      0.030352      0.028268
Pd      7.65838      6.64145     12.87099        -0.017375      0.029628     -0.073316
Ir     11.29237      9.57556     12.94480         0.178840     -0.079762     -0.082892
Ir     13.10746      9.24104     11.21045        -0.028752      0.019247      0.061357
Ir      9.16669      8.46153     13.86409        -0.008690     -0.037232     -0.034559
Ir     10.25010     10.42566     15.15214         0.038617      0.005297      0.039502
Ir      7.09752     11.84134     11.82291        -0.065324      0.037439     -0.035864
Ir     14.50101     11.12849     10.41982        -0.050938      0.023770     -0.010882
Ir     12.35626     10.59468      9.15170        -0.104987      0.086223     -0.078516
Ir      8.92662     10.80583     12.94763        -0.069698      0.062965     -0.060610
Ir     10.05866     10.26997     10.69331        -0.015286     -0.019059     -0.076592
Ir     13.30337     11.26358     12.67534         0.054019     -0.059292      0.020363
Ir     11.10009     12.05762     13.41026         0.008555      0.140637     -0.031637
Ir      7.99398     11.67287      9.51171        -0.109842     -0.025592      0.033557
Ir     11.36070      8.13705      9.57580        -0.159699     -0.017085     -0.020166
Ir      6.92973     13.38670      8.22382         0.041184      0.022646      0.043723
Ir      9.15572      7.24965      8.89157         0.045134      0.043204      0.007625
Ir      7.81522      9.15669      9.77101        -0.002903      0.060645     -0.025851
Ir     10.40087     12.26551      8.99753         0.122441      0.121142      0.003008
Ir      9.37709      7.87846     11.36160         0.018710     -0.022646     -0.060323
Ir     13.82014      8.45911      8.91889        -0.029738     -0.031366     -0.070862
