33
# total energy = -231.14863203 eVH      9.31303      4.28470      7.50000        -0.046156     -0.007811      0.000000
H      0.88917      5.91750      7.50000         0.046156      0.007811      0.000000
H      5.91750      9.31303      7.50000         0.007811     -0.046156      0.000000
H      4.28470      0.88917      7.50000        -0.007811      0.046156      0.000000
H      0.88917      4.28470      7.50000         0.046156     -0.007811      0.000000
H      9.31303      5.91750      7.50000        -0.046156      0.007811     -0.000000
H      4.28470      9.31303      7.50000        -0.007811     -0.046156     -0.000000
H      5.91750      0.88917      7.50000         0.007811      0.046156      0.000000
C     -0.00000      1.95298      7.50000         0.000000     -0.206613      0.000000
C     -0.00000      8.24922      7.50000         0.000000      0.206613      0.000000
C      8.24922     -0.00000      7.50000         0.206613      0.000000     -0.000000
C      1.95298     -0.00000      7.50000        -0.206613      0.000000     -0.000000
C      8.84217      2.45398      7.50000        -0.234763     -0.312600     -0.000000
C      1.36003      7.74822      7.50000         0.234763      0.312600      0.000000
C      7.74822      8.84217      7.50000         0.312600     -0.234763      0.000000
C      2.45398      1.36003      7.50000        -0.312600      0.234763     -0.000000
C      1.36003      2.45398      7.50000         0.234763     -0.312600     -0.000000
C      8.84217      7.74822      7.50000        -0.234763      0.312600     -0.000000
C      2.45398      8.84217      7.50000        -0.312600     -0.234763      0.000000
C      7.74822      1.36003      7.50000         0.312600      0.234763     -0.000000
N      8.45794      3.71943      7.50000         0.085075      0.251962      0.000000
N      1.74426      6.48277      7.50000        -0.085075     -0.251962     -0.000000
N      6.48277      8.45794      7.50000        -0.251962      0.085075      0.000000
N      3.71943      1.74426      7.50000         0.251962     -0.085075      0.000000
N      1.74426      3.71943      7.50000        -0.085075      0.251962     -0.000000
N      8.45794      6.48277      7.50000         0.085075     -0.251962      0.000000
N      3.71943      8.45794      7.50000         0.251962      0.085075     -0.000000
N      6.48277      1.74426      7.50000        -0.251962     -0.085075     -0.000000
Ir      5.10110      6.76287      7.50000         0.000000     -0.214098     -0.000000
Ir      5.10110      3.43933      7.50000         0.000000      0.214098      0.000000
Ir      3.43933      5.10110      7.50000         0.214098      0.000000      0.000000
Ir      6.76287      5.10110      7.50000        -0.214098      0.000000      0.000000
Ir     -0.00000     -0.00000      7.50000         0.000000      0.000000      0.000000
