20
# total energy = -167.56933753 eVC      8.01939      1.36199      7.50000        -0.043513     -0.055896      0.000000
C      1.41051     -0.16879      7.50000         0.028980     -0.074708     -0.000000
C      8.34997     -5.42726      7.50000        -0.089778      0.011242      0.000000
C      0.87103      1.14642      7.50000         0.043513      0.055896      0.000000
C      7.47991      2.67720      7.50000        -0.028980      0.074708     -0.000000
C      0.54045      7.93567      7.50000         0.089778     -0.011242     -0.000000
C      7.70375     -4.17920      7.50000         0.047743     -0.020407     -0.000000
C      7.17313      0.24686      7.50000        -0.015377     -0.035035      0.000000
C      2.78564     -0.45561      7.50000        -0.010185      0.037140     -0.000000
C      1.18667      6.68761      7.50000        -0.047743      0.020407      0.000000
C      1.71729      2.26155      7.50000         0.015377      0.035035      0.000000
C      6.10478      2.96402      7.50000         0.010185     -0.037140      0.000000
N      6.76819     -3.45880      7.50000         0.027339     -0.017537      0.000000
N      6.46684     -0.69617      7.50000         0.057111      0.076019      0.000000
N      3.73219     -1.16141      7.50000        -0.037592      0.030032      0.000000
N      2.12223      5.96721      7.50000        -0.027339      0.017537      0.000000
N      2.42358      3.20458      7.50000        -0.057111     -0.076019      0.000000
N      5.15824      3.66982      7.50000         0.037592     -0.030032      0.000000
Ir      5.25906     -2.29724      7.50000        -0.024272     -0.037995      0.000000
Ir      3.63136      4.80565      7.50000         0.024272      0.037995      0.000000
