152
# total energy = -1110.37993455 eVH     10.35389      5.87395      7.64558        -0.359369     -0.140861      1.076582
H     10.62451     15.10445      7.64558         0.355092      0.081446      0.937168
H     10.62451      5.87395     13.33282        -0.319515     -0.694708     -1.380701
H     10.35389     15.10445     13.33282        -0.612473      0.413286     -0.327182
H      7.64558     10.35389      5.87395         0.543834     -0.529099     -0.089350
H      7.64558     10.62451     15.10445         0.374934     -0.240317      0.044892
H     13.33282     10.62451      5.87395        -0.552993      0.631197     -0.033516
H     13.33282     10.35389     15.10445        -0.527877      0.407247      0.162178
H      5.87395      7.64558     10.35389         0.147399      0.533267      0.033208
H     15.10445      7.64558     10.62451         0.431627      0.956630      0.264013
H      5.87395     13.33282     10.62451        -0.224564     -0.480317      0.362441
H     15.10445     13.33282     10.35389         0.028652     -0.304199     -0.384092
H      5.87395     10.35389      7.64558        -0.083184     -0.374910      1.446387
H     15.10445     10.62451      7.64558         0.213367      0.470197      1.298465
H      5.87395     10.62451     13.33282        -0.190507     -0.358849     -1.178098
H     15.10445     10.35389     13.33282         0.580121      0.940689     -1.526312
H     10.35389      7.64558      5.87395        -0.552653      0.507477     -0.181904
H     10.62451      7.64558     15.10445        -0.140078      0.497710      0.180467
H     10.62451     13.33282      5.87395         0.884527     -1.369417     -0.320601
H     10.35389     13.33282     15.10445         0.255799     -0.556490     -0.090395
H      7.64558      5.87395     10.35389         0.715111      0.172095     -0.155340
H      7.64558     15.10445     10.62451         1.979976      0.776891      0.212170
H     13.33282      5.87395     10.62451        -2.687670     -0.953433     -0.470156
H     13.33282     15.10445     10.35389        -0.877793     -0.050112     -0.251047
H     12.45634     12.45634     19.01126         0.271972      0.257907     -0.227219
H     19.01126     19.01126     19.01126        -0.266812     -0.254972     -0.238362
H     19.01126     12.45634     12.45634        -0.283059      0.281211      0.186457
H     12.45634     19.01126     12.45634         0.256018     -0.251192      0.236016
C     10.35284      5.61067      6.59456         0.083486     -0.500891     -1.231192
C     10.62556     15.36773      6.59456         0.173718      0.758835     -0.820349
C     10.62556      5.61067     14.38384         0.182911     -0.312999      1.802957
C     10.35284     15.36773     14.38384         0.102602      0.387086      1.805160
C      6.59456     10.35284      5.61067        -1.130103     -0.110564     -0.865829
C      6.59456     10.62556     15.36773        -0.695932     -0.101272      0.766809
C     14.38384     10.62556      5.61067         0.864017     -0.110909     -1.000843
C     14.38384     10.35284     15.36773         1.199619      0.167023      1.106163
C      5.61067      6.59456     10.35284        -0.673677     -0.862774     -0.178015
C     15.36773      6.59456     10.62556         1.973826     -0.259498     -0.184065
C      5.61067     14.38384     10.62556        -1.573255     -0.007346     -0.128965
C     15.36773     14.38384     10.35284         0.486286      0.071485      0.014189
C      5.61067     10.35284      6.59456        -0.275330      0.199513     -1.344940
C     15.36773     10.62556      6.59456         0.284403     -0.233558     -0.997825
C      5.61067     10.62556     14.38384        -0.262088      0.420552      1.448179
C     15.36773     10.35284     14.38384         0.048102     -0.447689      1.932604
C     10.35284      6.59456      5.61067        -0.180983     -0.885854     -0.686606
C     10.62556      6.59456     15.36773        -0.109740     -0.763621      1.052723
C     10.62556     14.38384      5.61067        -0.498268      2.013350     -0.774682
C     10.35284     14.38384     15.36773        -0.277803      1.419064      0.488769
C      6.59456      5.61067     10.35284        -0.968379     -0.411966      0.084902
C      6.59456     15.36773     10.62556        -1.297489      0.369863     -0.330613
C     14.38384      5.61067     10.62556         1.287279     -1.249894      0.180439
C     14.38384     15.36773     10.35284         0.439167      0.314265      0.071892
C     10.40319      3.19606      7.29314         0.001867      0.309096     -0.103018
C     10.35913      4.25547      6.23373         0.139838     -0.537125      0.018006
C      0.08601      7.29314      7.29314        -0.053158     -0.297633     -0.424719
C      0.13007      6.23373      6.23373        -0.122275      0.701862      0.030353
C      0.08601      3.19606      3.19606        -0.107284      1.634256      0.171008
C      0.13007      4.25547      4.25547        -0.087468     -0.401279     -1.229568
C     10.40319      7.29314      3.19606         0.016275     -0.431866      0.124535
C     10.35913      6.23373      4.25547         0.261324      0.082328     -0.509430
C      7.29314     10.40319      3.19606        -1.671497      0.007291      0.325276
C      6.23373     10.35913      4.25547         0.657330      0.077189     -0.611067
C      7.29314      0.08601      7.29314        -0.405735     -0.012289     -0.307310
C      6.23373      0.13007      6.23373         0.680693     -0.055152      0.262836
C      3.19606      0.08601      3.19606         0.657149     -0.016417      0.185279
C      4.25547      0.13007      4.25547        -0.371297     -0.075185     -0.530056
C      3.19606     10.40319      7.29314         0.368042      0.019331     -0.316297
C      4.25547     10.35913      6.23373        -0.726628      0.066936      0.367123
C      3.19606      7.29314     10.40319         0.294586     -0.211095     -0.006529
C      4.25547      6.23373     10.35913         0.046435      0.644654      0.091734
C      7.29314      7.29314      0.08601        -0.718752     -0.607009     -0.020923
C      6.23373      6.23373      0.13007         0.870735      1.130340     -0.072271
C      3.19606      3.19606      0.08601         0.815739      0.503612      0.008277
C      4.25547      4.25547      0.13007        -0.327297     -1.743895     -0.127542
C      7.29314      3.19606     10.40319        -0.329625      0.275426     -0.003734
C      6.23373      4.25547     10.35913         0.509082     -0.028053      0.229746
O     10.43466      3.58206      8.50569        -0.048218      0.182857      0.258004
O     10.54374     17.39634      8.50569         0.042145     -0.232922      0.484576
O     10.54374      3.58206     12.47271         0.084003     -0.063954     -0.035707
O     10.43466     17.39634     12.47271        -0.023115     -0.141189     -0.275205
O      8.50569     10.43466      3.58206         0.984902      0.185208      0.385224
O      8.50569     10.54374     17.39634         0.573280      0.084521     -0.228616
O     12.47271     10.54374      3.58206        -0.422842     -0.038625      0.186305
O     12.47271     10.43466     17.39634        -0.516615     -0.069656     -0.196782
O      3.58206      8.50569     10.43466         0.182353      0.431676     -0.030058
O     17.39634      8.50569     10.54374        -0.230116      0.714832      0.044230
O      3.58206     12.47271     10.54374         0.160838     -0.675330      0.025127
O     17.39634     12.47271     10.43466        -0.185619     -0.479772     -0.011900
O      3.58206     10.43466      8.50569         0.224039     -0.059883      0.401520
O     17.39634     10.54374      8.50569        -0.170707      0.036973      0.410660
O      3.58206     10.54374     12.47271         0.146934      0.021057     -0.305921
O     17.39634     10.43466     12.47271         0.072000     -0.049988     -0.082131
O     10.43466      8.50569      3.58206         0.000544      0.275450      0.181169
O     10.54374      8.50569     17.39634         0.070691      0.436104     -0.179732
O     10.54374     12.47271      3.58206        -0.222103     -0.968605      0.342794
O     10.43466     12.47271     17.39634        -0.084011     -0.449961     -0.245300
O      8.50569      3.58206     10.43466         0.494263      0.196269     -0.011953
O      8.50569     17.39634     10.54374         0.663260     -0.198597      0.022036
O     12.47271      3.58206     10.54374        -0.741770      0.278505      0.036579
O     12.47271     17.39634     10.43466        -0.437912     -0.202991     -0.044159
O     11.90042     11.90042     19.56718        -0.346251     -0.307536      0.259274
O     19.56718     19.56718     19.56718         0.325208      0.311696      0.282564
O     19.56718     11.90042     11.90042         0.276719     -0.276493     -0.140419
O     11.90042     19.56718     11.90042        -0.306130      0.286095     -0.233988
O      9.45224      1.03696      9.45224        -0.058946      0.071921     -0.047336
O      1.03696      9.45224      9.45224         0.035735     -0.073622     -0.072110
O      1.03696      1.03696      1.03696         0.059047      0.142264      0.101294
O      9.45224      9.45224      1.03696        -0.135681     -0.091797      0.101416
Zr     10.48920      2.52580     10.48920         0.154294     -0.167583     -0.163071
Zr     10.48920     18.45260     10.48920        -0.097725      0.181339     -0.045813
Zr     10.48920     10.48920      2.52580         0.333530     -0.309321     -0.198508
Zr     10.48920     10.48920     18.45260         0.007344     -0.086991      0.206015
Zr      2.52580     10.48920     10.48920        -0.067644      0.171620     -0.051476
Zr     18.45260     10.48920     10.48920         0.141035     -0.127547     -0.249431
Ir     12.04842     12.48438     10.46070        -0.010332      0.006648      0.011191
Ir     11.19170      7.41710     10.29259         0.024331     -0.006241     -0.032033
Ir      8.83664      7.36991     11.56117         0.006939     -0.014347     -0.014324
Ir      7.48033     11.65474      7.66017        -0.006656     -0.005659      0.002734
Ir     11.59339     12.08628      7.12239         0.003254      0.000488     -0.000627
Ir     13.76319      8.98878      7.54820         0.001314     -0.000553     -0.000117
Ir     12.48539     13.95484      8.41835        -0.008724     -0.006467     -0.004739
Ir      9.72595     11.26167      5.56011         0.008994     -0.001492     -0.009283
Ir      9.08043     13.46336      7.07729        -0.002217     -0.008998     -0.001300
Ir      9.27945      9.66515      7.52221        -0.005547      0.002005     -0.009608
Ir     13.27773      7.04012     11.95464         0.008219      0.000978      0.002158
Ir     13.59344      7.03598      9.11642         0.013817      0.010643     -0.007808
Ir     11.03726      7.60008     12.83897         0.006344     -0.010516     -0.005759
Ir     13.60810     11.56286      8.75528         0.001987      0.002475     -0.004549
Ir     11.50439      9.64524      6.23354         0.001407     -0.007741     -0.003774
Ir      7.15321      9.17107      8.93752        -0.001126     -0.009773     -0.010844
Ir     14.06157     11.43172     11.65887        -0.003855      0.007960     -0.003803
Ir     11.65549      9.85422      8.88839         0.006010     -0.017315     -0.017460
Ir      9.43465      9.51482     10.24433         0.006292     -0.000134     -0.005739
Ir     13.86762      9.40465     10.18458         0.007191      0.002318     -0.010233
Ir     13.81723      9.15927     12.90337         0.009874     -0.001234     -0.008857
Ir     11.69170      9.76318     11.56322         0.004436      0.006673     -0.015600
Ir      9.91083     11.74495      8.97382         0.004176     -0.013903     -0.005074
Ir      9.07225      7.43485      8.81857         0.020106     -0.006469     -0.022787
Ir     11.56778      7.56448      7.76618         0.039654     -0.016696     -0.010373
Ir      9.25231      9.48703     13.01739         0.003532     -0.012077     -0.005675
Ir      7.51785     13.91105      8.99500        -0.003135     -0.007863      0.000859
Ir     10.88532     14.11227     11.95098        -0.008041     -0.012985     -0.003136
Ir     10.11787     14.16076      9.52247        -0.002128     -0.005764     -0.001730
Ir      9.79407     11.69397     11.72900         0.013454     -0.007454     -0.002499
Ir      7.58792     11.58002     10.21380         0.000308     -0.010620     -0.006283
Ir      8.35768     13.75261     11.58679        -0.008699     -0.005054     -0.001086
Ir      7.52642     11.57248     12.82978        -0.004869     -0.015224      0.001845
Ir      9.77058     11.61883     14.34509         0.001162     -0.008612      0.006262
Ir     13.48269     13.88245     12.19083        -0.010504     -0.004131     -0.000093
Ir     11.99410     12.05224     13.08521        -0.001821      0.003577     -0.018606
Ir     11.57549      9.80474     14.20286         0.005131     -0.012365     -0.005493
Ir      7.14928      9.37435     11.49806         0.002632     -0.015992     -0.003669
