152
# total energy = -1005.99990375 eVH     10.35389      5.87395      7.64558         0.258827      0.035738      0.636977
H     10.62451     15.10445      7.64558        -0.107496     -0.141895      0.515565
H     10.62451      5.87395     13.33282         0.485008      0.121333     -0.584008
H     10.35389     15.10445     13.33282         0.076349     -0.183773     -0.553751
H      7.64558     10.35389      5.87395         0.371915      0.080158      0.165679
H      7.64558     10.62451     15.10445         0.694861      0.472169     -0.040466
H     13.33282     10.62451      5.87395        -0.532061      0.420350      0.075647
H     13.33282     10.35389     15.10445        -0.803818     -0.094643      0.008919
H      5.87395      7.64558     10.35389         0.241719      0.702278     -0.385800
H     15.10445      7.64558     10.62451        -0.095097      0.480989      0.283917
H      5.87395     13.33282     10.62451         0.159167     -0.696877     -0.157158
H     15.10445     13.33282     10.35389        -0.009755     -1.027384     -0.327135
H      5.87395     10.35389      7.64558         0.255158      0.283622      0.727318
H     15.10445     10.62451      7.64558        -0.108601      0.405164      0.760967
H      5.87395     10.62451     13.33282         0.135767      0.328720     -0.692126
H     15.10445     10.35389     13.33282        -0.052848     -0.072728     -0.690017
H     10.35389      7.64558      5.87395         0.390197      1.051473     -0.008268
H     10.62451      7.64558     15.10445         0.535909      0.536698     -0.120172
H     10.62451     13.33282      5.87395        -0.398117     -0.844152      0.187380
H     10.35389     13.33282     15.10445        -0.044793     -0.433559     -0.216847
H      7.64558      5.87395     10.35389         0.849017      0.095152     -0.290432
H      7.64558     15.10445     10.62451         0.836450     -0.197245      0.010170
H     13.33282      5.87395     10.62451        -0.803803      0.195691      0.587150
H     13.33282     15.10445     10.35389        -0.444199     -0.110863     -0.131612
H     12.45634     12.45634     19.01126         0.235322      0.270288     -0.239874
H     19.01126     19.01126     19.01126        -0.262513     -0.240625     -0.261143
H     19.01126     12.45634     12.45634        -0.266924      0.268737      0.218646
H     12.45634     19.01126     12.45634         0.231980     -0.255636      0.278539
C     10.35284      5.61067      6.59456        -0.433636     -0.729300      0.194451
C     10.62556     15.36773      6.59456         0.062274      0.367724     -0.297856
C     10.62556      5.61067     14.38384        -0.332907     -0.362900     -0.304087
C     10.35284     15.36773     14.38384        -0.008988      0.334478      0.542180
C      6.59456     10.35284      5.61067        -0.222037     -0.002954     -0.387474
C      6.59456     10.62556     15.36773        -0.262002     -0.219702      0.808135
C     14.38384     10.62556      5.61067        -0.269059     -0.400501     -0.517556
C     14.38384     10.35284     15.36773         0.977216     -0.055823      0.254592
C      5.61067      6.59456     10.35284        -0.539919      0.000561      0.162410
C     15.36773      6.59456     10.62556         0.525857      0.024236     -0.251026
C      5.61067     14.38384     10.62556        -0.338774      0.973577      0.076995
C     15.36773     14.38384     10.35284         0.316940      1.036263      0.053141
C      5.61067     10.35284      6.59456        -0.179709     -0.308307     -0.619274
C     15.36773     10.62556      6.59456         0.446897     -0.287759      0.118162
C      5.61067     10.62556     14.38384        -0.724281     -0.352719     -0.062749
C     15.36773     10.35284     14.38384         0.385633     -0.061873      1.012309
C     10.35284      6.59456      5.61067        -0.208005     -0.212688     -0.655315
C     10.62556      6.59456     15.36773        -0.267516      0.124920      0.447923
C     10.62556     14.38384      5.61067         0.204473      1.064570     -0.347690
C     10.35284     14.38384     15.36773         0.025113      0.538658      0.436858
C      6.59456      5.61067     10.35284        -0.173630     -0.649208      0.236003
C      6.59456     15.36773     10.62556        -1.021760      0.299357      0.079643
C     14.38384      5.61067     10.62556         0.493488     -0.545917     -0.365044
C     14.38384     15.36773     10.35284         0.214672      0.455869     -0.102338
C     10.40319      3.19606      7.29314         0.008303      0.692094     -0.485624
C     10.35913      4.25547      6.23373         0.085203     -0.727520     -0.017680
C      0.08601      7.29314      7.29314        -0.044063     -0.409751     -0.309841
C      0.13007      6.23373      6.23373        -0.022901      0.082996      0.568624
C      0.08601      3.19606      3.19606        -0.017136      1.251660      0.280782
C      0.13007      4.25547      4.25547         0.048987     -0.776373     -0.152705
C     10.40319      7.29314      3.19606         0.009826     -0.341583      0.351713
C     10.35913      6.23373      4.25547         0.027168      0.012054     -0.889654
C      7.29314     10.40319      3.19606        -0.353598      0.020358      0.565576
C      6.23373     10.35913      4.25547         0.207937      0.054240     -0.118361
C      7.29314      0.08601      7.29314        -0.523956     -0.064362     -0.372774
C      6.23373      0.13007      6.23373         0.680741     -0.048507      0.489126
C      3.19606      0.08601      3.19606         0.678672     -0.036780      0.566493
C      4.25547      0.13007      4.25547        -0.574689     -0.081372     -0.553297
C      3.19606     10.40319      7.29314         0.482841     -0.019271     -0.777412
C      4.25547     10.35913      6.23373        -0.486136      0.033207      0.201735
C      3.19606      7.29314     10.40319         0.285623     -1.258608      0.039367
C      4.25547      6.23373     10.35913        -0.710532      0.101765      0.153314
C      7.29314      7.29314      0.08601        -0.407343     -0.371274     -0.027992
C      6.23373      6.23373      0.13007         0.468571      0.213692     -0.020550
C      3.19606      3.19606      0.08601         0.499315      0.372547     -0.039416
C      4.25547      4.25547      0.13007        -0.151128     -0.650290     -0.034525
C      7.29314      3.19606     10.40319        -0.322340      0.423616      0.075384
C      6.23373      4.25547     10.35913         0.260163     -0.693113      0.137812
O     10.43466      3.58206      8.50569        -0.015290      0.102424      0.506615
O     10.54374     17.39634      8.50569         0.036489     -0.174789      0.483076
O     10.54374      3.58206     12.47271         0.057026     -0.083691     -0.187647
O     10.43466     17.39634     12.47271        -0.038433     -0.182900     -0.563321
O      8.50569     10.43466      3.58206         0.331794      0.002687      0.034400
O      8.50569     10.54374     17.39634         0.631970      0.033578     -0.145147
O     12.47271     10.54374      3.58206        -0.681461      0.082951      0.092197
O     12.47271     10.43466     17.39634        -0.439326      0.026706     -0.111439
O      3.58206      8.50569     10.43466         0.181002      1.033544     -0.047030
O     17.39634      8.50569     10.54374        -0.162103      0.539058      0.076420
O      3.58206     12.47271     10.54374         0.083838     -0.363228      0.048951
O     17.39634     12.47271     10.43466        -0.157568     -0.545985     -0.022770
O      3.58206     10.43466      8.50569         0.075919     -0.062451      0.592712
O     17.39634     10.54374      8.50569        -0.110767      0.066019      0.521987
O      3.58206     10.54374     12.47271         0.054241      0.051402     -0.532095
O     17.39634     10.43466     12.47271        -0.218589     -0.039782     -0.593989
O     10.43466      8.50569      3.58206        -0.039345      0.469840      0.134578
O     10.54374      8.50569     17.39634         0.048510      0.529858     -0.160697
O     10.54374     12.47271      3.58206        -0.002669     -1.006729      0.206564
O     10.43466     12.47271     17.39634         0.041904     -0.733344     -0.174722
O      8.50569      3.58206     10.43466         0.506662      0.146698     -0.054084
O      8.50569     17.39634     10.54374         0.486573     -0.197896      0.013999
O     12.47271      3.58206     10.54374        -0.640332      0.234962      0.008768
O     12.47271     17.39634     10.43466        -0.213871      0.069039     -0.056510
O     11.90042     11.90042     19.56718        -0.239807     -0.289096      0.247597
O     19.56718     19.56718     19.56718         0.310220      0.295155      0.300369
O     19.56718     11.90042     11.90042         0.290269     -0.264902     -0.233233
O     11.90042     19.56718     11.90042        -0.242382      0.290678     -0.335468
O      9.45224      1.03696      9.45224        -0.020437      0.086626     -0.072752
O      1.03696      9.45224      9.45224         0.090841     -0.091636     -0.138542
O      1.03696      1.03696      1.03696         0.089054      0.190150      0.047851
O      9.45224      9.45224      1.03696        -0.111387     -0.100940      0.031384
Zr     10.48920      2.52580     10.48920        -0.131229     -0.290736     -0.035978
Zr     10.48920     18.45260     10.48920        -0.073656      0.214799      0.092563
Zr     10.48920     10.48920      2.52580         0.056462     -0.409070     -0.251200
Zr     10.48920     10.48920     18.45260        -0.271921     -0.090442      0.324085
Zr      2.52580     10.48920     10.48920        -0.376352      0.239922      0.300965
Zr     18.45260     10.48920     10.48920         0.240070     -0.001005     -0.223254
Pd     13.60607      8.98954      9.20271        -0.000844     -0.001229     -0.004188
Pd      5.62835      9.86643     10.13030         0.001956      0.002068     -0.007374
Pd      6.77137     11.84849     11.70933         0.000285     -0.001914     -0.000169
Pd     12.06075     12.99642      7.35984        -0.005642     -0.001368      0.001136
Pd     11.87537      7.73973      7.45550        -0.001676     -0.005407     -0.005410
Pd      8.31584      6.83317      6.53463         0.000143     -0.009775     -0.006380
Pd     10.57664     11.16847      5.65406        -0.017008     -0.001129      0.003462
Pd     14.39935      8.54774      6.73015        -0.003023     -0.000821     -0.002608
Pd      9.66532     11.73045      8.14577         0.001213     -0.003708      0.004304
Pd      6.73068      6.78913     12.33859        -0.002863     -0.003413      0.001825
Pd      6.60623      8.24732      7.90457         0.018008      0.021496     -0.025909
Pd      6.52481      8.49175     14.38687        -0.000509     -0.001520      0.002667
Pd     11.48468      6.51266      9.94926        -0.002114     -0.003583      0.000989
Pd      9.46505      9.19912      7.16887        -0.002145      0.000206      0.000976
Pd      8.97881     13.99185      9.35936        -0.000219     -0.004024      0.007561
Pd      9.43752      7.36733     11.70105        -0.004880      0.000185     -0.002218
Pd     10.62965      8.96236      9.67593         0.002954     -0.002001     -0.004456
Pd      9.34073     11.56593     10.73362        -0.001392      0.004997      0.004303
Pd      8.86642      7.06953      9.11332        -0.006169      0.000545     -0.005955
Pd      8.55419      6.57998     14.23457         0.000022     -0.000184     -0.000695
Pd      7.62112      9.32129     12.02858        -0.003456      0.000229      0.003171
Pd     11.94352     10.37587      7.71283        -0.004048     -0.003094     -0.010722
Pd      7.12851     12.01552      9.06706         0.002634     -0.002958      0.000631
Pd      8.14704      9.62389      9.46502         0.001432     -0.001159      0.008109
Pd     14.01154      6.50083      8.52425        -0.001384     -0.003054      0.000021
Pd     12.62858      8.40736     11.56716        -0.002546     -0.001797     -0.000350
Pd      8.76138     11.57186     13.41190        -0.002835      0.000117      0.004142
Pd     13.87236     11.91363      8.96904        -0.003089     -0.001965     -0.003358
Pd     12.93555     10.70215     13.07514        -0.002296     -0.003115     -0.001244
Pd     14.76583     10.43215     11.11915        -0.002934     -0.005637     -0.000523
Pd     12.05318     10.89762     10.53834        -0.006317     -0.001681     -0.003823
Pd     11.44663     13.34912      9.92720         0.000833      0.003627      0.002041
Pd     13.59734     12.91469     11.62702         0.001906     -0.004020     -0.000004
Pd     11.11457     12.62682     12.54397        -0.001720     -0.000969      0.000963
Pd     10.94380     11.06566     14.81755         0.000985      0.001269      0.000953
Pd     10.50081      9.72264     12.37921        -0.003623      0.000434     -0.001868
Pd      9.08397      9.14182     14.43330         0.000426     -0.001668      0.004719
Pd      8.80092     13.86346     12.06011        -0.003465     -0.000621      0.009523
