152
# total energy = -1060.01968637 eVH     10.35389      5.87395      7.64558        -0.265191      0.004857      1.144354
H     10.62451     15.10445      7.64558         0.046832     -0.089874      0.925698
H     10.62451      5.87395     13.33282        -0.240435      0.087250     -0.788131
H     10.35389     15.10445     13.33282         0.099097     -0.297734     -0.896183
H      7.64558     10.35389      5.87395         0.931377     -0.114725      0.182535
H      7.64558     10.62451     15.10445         0.335848     -0.043367     -0.076366
H     13.33282     10.62451      5.87395        -0.871434      0.211844      0.202919
H     13.33282     10.35389     15.10445        -0.277543     -0.011444     -0.068888
H      5.87395      7.64558     10.35389         0.088796      0.414986     -0.014351
H     15.10445      7.64558     10.62451         0.011530      0.510187     -0.032671
H      5.87395     13.33282     10.62451        -0.017802     -0.962335      0.076650
H     15.10445     13.33282     10.35389        -0.078894     -0.320022      0.004233
H      5.87395     10.35389      7.64558         0.272086      0.118257      0.416174
H     15.10445     10.62451      7.64558        -0.125544     -0.174997      0.651892
H      5.87395     10.62451     13.33282        -0.089818      0.459340     -0.617443
H     15.10445     10.35389     13.33282         0.260126     -0.646328     -0.813431
H     10.35389      7.64558      5.87395        -0.045703      0.481473      0.331082
H     10.62451      7.64558     15.10445         0.222466      0.750895     -0.044200
H     10.62451     13.33282      5.87395         0.123364     -0.563851      0.204931
H     10.35389     13.33282     15.10445         0.043793     -0.286015     -0.135609
H      7.64558      5.87395     10.35389         0.339206      0.093669      0.016950
H      7.64558     15.10445     10.62451         0.371230     -0.113891      0.158009
H     13.33282      5.87395     10.62451        -0.317974      0.127583     -0.036453
H     13.33282     15.10445     10.35389        -0.652455     -0.133015      0.145201
H     12.45634     12.45634     19.01126         0.254854      0.270765     -0.229538
H     19.01126     19.01126     19.01126        -0.245836     -0.268541     -0.245397
H     19.01126     12.45634     12.45634        -0.251725      0.269243      0.235109
H     12.45634     19.01126     12.45634         0.290576     -0.236058      0.234110
C     10.35284      5.61067      6.59456         0.396790     -0.427608     -1.459813
C     10.62556     15.36773      6.59456        -0.158273      0.572303     -0.629223
C     10.62556      5.61067     14.38384         0.386996     -0.348370      0.844219
C     10.35284     15.36773     14.38384        -0.234288      0.223488      1.108454
C      6.59456     10.35284      5.61067        -1.375704      0.019007     -0.243854
C      6.59456     10.62556     15.36773        -0.653345      0.060516      0.381929
C     14.38384     10.62556      5.61067         1.307587     -0.173650     -0.621155
C     14.38384     10.35284     15.36773         0.375927     -0.122000      0.357684
C      5.61067      6.59456     10.35284        -0.295034     -0.626509     -0.013312
C     15.36773      6.59456     10.62556         0.421567     -0.999138      0.030655
C      5.61067     14.38384     10.62556        -0.123975      1.161924     -0.180855
C     15.36773     14.38384     10.35284         0.457354      0.647323     -0.025753
C      5.61067     10.35284      6.59456        -0.365938     -0.101156     -0.713873
C     15.36773     10.62556      6.59456         0.418312      0.121198     -0.747106
C      5.61067     10.62556     14.38384        -0.384319     -0.174300      1.226315
C     15.36773     10.35284     14.38384         0.282635      0.191817      1.505080
C     10.35284      6.59456      5.61067        -0.050556     -0.711674     -0.627776
C     10.62556      6.59456     15.36773        -0.092190     -0.832706      0.346347
C     10.62556     14.38384      5.61067        -0.458049      0.416342     -0.698684
C     10.35284     14.38384     15.36773        -0.152853      0.589546      0.413539
C      6.59456      5.61067     10.35284        -0.502379     -0.338920      0.038620
C      6.59456     15.36773     10.62556        -0.395460      0.465921      0.050946
C     14.38384      5.61067     10.62556         0.448463     -0.386119      0.004930
C     14.38384     15.36773     10.35284         1.120490      0.503144     -0.071105
C     10.40319      3.19606      7.29314         0.001800      0.642323     -0.336984
C     10.35913      4.25547      6.23373         0.003726     -0.444190      0.290194
C      0.08601      7.29314      7.29314        -0.013151     -0.356598     -0.497189
C      0.13007      6.23373      6.23373        -0.078189      0.830679      0.060406
C      0.08601      3.19606      3.19606        -0.001770      0.671532      0.269584
C      0.13007      4.25547      4.25547         0.023490     -0.269275     -0.525787
C     10.40319      7.29314      3.19606        -0.067196     -1.156996      0.555377
C     10.35913      6.23373      4.25547        -0.038216      0.372565     -0.196013
C      7.29314     10.40319      3.19606        -1.083951     -0.058120      0.185342
C      6.23373     10.35913      4.25547         0.363336      0.081620     -0.537062
C      7.29314      0.08601      7.29314        -0.411917      0.034123     -0.559376
C      6.23373      0.13007      6.23373         0.178965      0.132581      0.130677
C      3.19606      0.08601      3.19606         0.698131      0.024425      0.164293
C      4.25547      0.13007      4.25547        -0.169761     -0.052898     -0.366195
C      3.19606     10.40319      7.29314         0.385132     -0.024686     -0.867689
C      4.25547     10.35913      6.23373        -0.162335     -0.084107      0.096144
C      3.19606      7.29314     10.40319         0.599926     -0.386528      0.001709
C      4.25547      6.23373     10.35913        -0.117542      0.181237     -0.000177
C      7.29314      7.29314      0.08601        -0.403143     -0.326821     -0.015148
C      6.23373      6.23373      0.13007         0.198327      0.193102     -0.058019
C      3.19606      3.19606      0.08601         0.290584      0.479502     -0.023511
C      4.25547      4.25547      0.13007        -0.398992     -0.227119     -0.030089
C      7.29314      3.19606     10.40319        -0.281782      0.589805     -0.013311
C      6.23373      4.25547     10.35913         0.003443     -0.123894      0.021778
O     10.43466      3.58206      8.50569        -0.030123      0.102839      0.329376
O     10.54374     17.39634      8.50569         0.066234     -0.134145      0.591756
O     10.54374      3.58206     12.47271         0.027085      0.107895     -0.390320
O     10.43466     17.39634     12.47271         0.088531     -0.045279     -0.366397
O      8.50569     10.43466      3.58206         0.713419     -0.060523      0.013557
O      8.50569     10.54374     17.39634         0.453047      0.055137     -0.071081
O     12.47271     10.54374      3.58206        -0.652525      0.113979      0.204558
O     12.47271     10.43466     17.39634        -0.288100     -0.004843      0.012772
O      3.58206      8.50569     10.43466         0.044871      0.461873     -0.065862
O     17.39634      8.50569     10.54374        -0.061848      0.461299      0.055386
O      3.58206     12.47271     10.54374         0.113674     -0.584010      0.002931
O     17.39634     12.47271     10.43466        -0.168201     -0.737946     -0.061129
O      3.58206     10.43466      8.50569         0.216849     -0.063318      0.778307
O     17.39634     10.54374      8.50569        -0.115620      0.077496      0.594424
O      3.58206     10.54374     12.47271         0.000150     -0.001179     -0.270090
O     17.39634     10.43466     12.47271         0.042323     -0.013474     -0.213152
O     10.43466      8.50569      3.58206        -0.104503      0.575462     -0.115371
O     10.54374      8.50569     17.39634         0.065163      0.502567     -0.098902
O     10.54374     12.47271      3.58206         0.105070     -0.623001      0.134291
O     10.43466     12.47271     17.39634        -0.061099     -0.630004     -0.240350
O      8.50569      3.58206     10.43466         0.398845      0.028941     -0.032186
O      8.50569     17.39634     10.54374         0.627540     -0.152608      0.050394
O     12.47271      3.58206     10.54374        -0.508449      0.126789      0.037450
O     12.47271     17.39634     10.43466        -0.621995     -0.139031      0.036129
O     11.90042     11.90042     19.56718        -0.274379     -0.308335      0.236915
O     19.56718     19.56718     19.56718         0.301909      0.318956      0.299731
O     19.56718     11.90042     11.90042         0.285300     -0.324731     -0.230642
O     11.90042     19.56718     11.90042        -0.317778      0.230312     -0.201798
O      9.45224      1.03696      9.45224        -0.084973      0.083043     -0.066591
O      1.03696      9.45224      9.45224         0.099640     -0.116580     -0.044486
O      1.03696      1.03696      1.03696         0.082413      0.055283      0.099734
O      9.45224      9.45224      1.03696        -0.060112     -0.131160      0.131161
Zr     10.48920      2.52580     10.48920         0.032058     -0.087494      0.065891
Zr     10.48920     18.45260     10.48920        -0.169736      0.262450     -0.344288
Zr     10.48920     10.48920      2.52580         0.122502      0.355268     -0.355258
Zr     10.48920     10.48920     18.45260        -0.080586     -0.193006      0.172845
Zr      2.52580     10.48920     10.48920        -0.253469      0.124035      0.220426
Zr     18.45260     10.48920     10.48920         0.230900     -0.111292      0.006902
Pd      9.38674     14.22106      9.39228         0.018573      0.050114     -0.032429
Pd      8.63227     13.71312     12.98244        -0.009722     -0.022812     -0.005295
Pd     12.01655     14.41534      8.75522         0.020770      0.001408     -0.009876
Pd     12.78398     12.79837     10.60864        -0.027703      0.051843      0.026482
Pd     12.16703      7.09936     12.60369        -0.026123      0.023267      0.016749
Pd     11.23982     14.80238     11.53269        -0.033440      0.032613     -0.034212
Pd     10.11485     12.46087     11.15303        -0.072705      0.050555     -0.083107
Pd     13.47655     12.13512      7.97266         0.009925      0.000499      0.008504
Pd     11.47428     11.55184      6.11748         0.010792      0.006291     -0.013578
Pd      7.84330      8.58726      7.55452         0.016514     -0.036575     -0.015327
Pd      8.74550     11.72503      6.90109        -0.013792      0.004015     -0.031671
Pd     10.31570      9.45488      8.13376        -0.001293      0.017854      0.016538
Pd      8.50869     14.42433      6.87632         0.003546      0.017176     -0.036607
Pd     12.37742      9.02959      6.57555        -0.010669      0.005792      0.016213
Pd      9.74243      9.60569      5.55038         0.001107      0.001462      0.004969
Pd      6.88406      9.46286     12.19262        -0.011607     -0.001600     -0.003799
Pd     12.21023      6.67430      7.84908        -0.001125      0.024175      0.033118
Pd      5.96479     10.48769      9.73971        -0.018458     -0.033919     -0.020045
Pd      7.57149      7.09971     13.19704         0.016420      0.052158      0.072359
Ir     11.83209      9.69029     13.06125        -0.025767      0.002081     -0.001038
Ir     13.59254      8.98198     11.43113        -0.020211     -0.000081      0.017231
Ir      9.42763      8.81538     13.82083        -0.008177     -0.020972      0.064967
Ir     10.57601     10.91327     14.85406        -0.000048      0.001262      0.044630
Ir      7.31084     12.04604     11.37524         0.010707     -0.021211      0.009517
Ir     14.70457     10.81930     10.06578        -0.001733      0.018327      0.027497
Ir     12.20693     10.45913      9.65055        -0.021438      0.019586      0.004659
Ir      8.77986     11.04882     13.04074        -0.027262      0.032268     -0.051415
Ir     10.16002      9.83323     11.24783        -0.017582      0.021627     -0.037029
Ir     13.80055     11.35441     12.38277        -0.038508      0.002282      0.049929
Ir     11.70521     12.29079     13.11912        -0.048128      0.004552      0.021642
Ir      8.54717     11.06159      9.40326        -0.023772      0.010292     -0.004746
Ir     11.59866      7.96180     10.05224         0.001732      0.007311      0.008896
Ir      7.22725     12.97161      8.69343         0.012492      0.013207      0.014851
Ir      9.51060      7.00065      9.07674         0.006697      0.005895      0.029623
Ir      8.08381      8.73635     10.11369        -0.013425      0.016805     -0.006017
Ir     10.76806     12.08119      8.55067        -0.004885      0.006396     -0.002133
Ir      9.59156      7.39385     11.63267        -0.017579      0.037460      0.032308
Ir     13.70359      8.67047      8.79153        -0.001652      0.026137      0.004262
