152
# total energy = -1002.13718359 eVH     10.35389      5.87395      7.64558         0.066979      0.082175      1.382039
H     10.62451     15.10445      7.64558         0.028971     -0.020432      1.069210
H     10.62451      5.87395     13.33282         0.289458      0.052832     -1.270707
H     10.35389     15.10445     13.33282        -0.210333     -0.166528     -0.982605
H      7.64558     10.35389      5.87395         0.985616      0.468950     -0.264847
H      7.64558     10.62451     15.10445         0.627181      0.199361      0.032294
H     13.33282     10.62451      5.87395        -1.071074      0.413580     -0.162711
H     13.33282     10.35389     15.10445        -0.610830     -0.096046      0.008356
H      5.87395      7.64558     10.35389        -0.463212      2.167795      0.532201
H     15.10445      7.64558     10.62451         0.160574      1.515989     -0.046823
H      5.87395     13.33282     10.62451        -0.177160     -1.107784     -0.373432
H     15.10445     13.33282     10.35389         0.153872     -1.229386     -0.342551
H      5.87395     10.35389      7.64558        -1.041091      0.406335      1.427687
H     15.10445     10.62451      7.64558         0.407236      0.473150      1.395121
H      5.87395     10.62451     13.33282        -0.955664      0.478252     -1.264240
H     15.10445     10.35389     13.33282         0.923051     -0.072875     -1.112917
H     10.35389      7.64558      5.87395         0.379027      1.080114     -0.073340
H     10.62451      7.64558     15.10445         0.226178      0.590889     -0.096328
H     10.62451     13.33282      5.87395        -0.570079     -1.223211     -0.185804
H     10.35389     13.33282     15.10445        -0.102003     -0.471992     -0.146872
H      7.64558      5.87395     10.35389         0.699236     -0.134992      0.053113
H      7.64558     15.10445     10.62451         0.585647     -0.133190     -0.141257
H     13.33282      5.87395     10.62451        -0.836354      0.060190      0.042877
H     13.33282     15.10445     10.35389        -0.434953     -0.080265     -0.061777
H     12.45634     12.45634     19.01126         0.254831      0.234316     -0.251324
H     19.01126     19.01126     19.01126        -0.251091     -0.247751     -0.243125
H     19.01126     12.45634     12.45634        -0.261693      0.267571      0.228590
H     12.45634     19.01126     12.45634         0.266325     -0.271435      0.219869
C     10.35284      5.61067      6.59456        -0.093410     -0.911224     -1.322548
C     10.62556     15.36773      6.59456        -0.183464      0.613681     -0.895109
C     10.62556      5.61067     14.38384        -0.289142     -0.426826      1.589838
C     10.35284     15.36773     14.38384         0.179689      0.257945      1.006156
C      6.59456     10.35284      5.61067        -1.951188      0.173991     -1.255520
C      6.59456     10.62556     15.36773        -0.986276      0.147929      0.733313
C     14.38384     10.62556      5.61067         1.772465      0.141960     -0.978394
C     14.38384     10.35284     15.36773         1.004620     -0.009491      0.594939
C      5.61067      6.59456     10.35284        -0.677257     -1.677786      0.083089
C     15.36773      6.59456     10.62556         0.410246     -0.845145     -0.047188
C      5.61067     14.38384     10.62556        -0.226013      1.173577      0.063491
C     15.36773     14.38384     10.35284         0.255923      1.368555      0.043426
C      5.61067     10.35284      6.59456        -0.499037      0.018955     -1.822875
C     15.36773     10.62556      6.59456         0.536927      0.164237     -1.297307
C      5.61067     10.62556     14.38384        -0.043937     -0.056539      1.675982
C     15.36773     10.35284     14.38384         0.023887     -0.017009      1.612366
C     10.35284      6.59456      5.61067         0.032271     -1.169941     -0.804291
C     10.62556      6.59456     15.36773         0.120648     -0.509680      0.574935
C     10.62556     14.38384      5.61067         0.131993      1.178350     -0.610309
C     10.35284     14.38384     15.36773        -0.032651      0.443579      0.420203
C      6.59456      5.61067     10.35284        -0.420408     -1.162310      0.029748
C      6.59456     15.36773     10.62556        -0.863625      0.733103     -0.033286
C     14.38384      5.61067     10.62556         0.701265     -0.818840     -0.168090
C     14.38384     15.36773     10.35284         0.418589      0.606119     -0.034224
C     10.40319      3.19606      7.29314        -0.028981      0.249276     -0.718017
C     10.35913      4.25547      6.23373        -0.050898     -0.570588      0.145931
C      0.08601      7.29314      7.29314        -0.004069     -0.369032     -0.324684
C      0.13007      6.23373      6.23373         0.000683      0.388699      0.259938
C      0.08601      3.19606      3.19606         0.025371      0.519453      0.563379
C      0.13007      4.25547      4.25547         0.012294     -0.507439     -0.466129
C     10.40319      7.29314      3.19606        -0.057393     -0.876171      0.259814
C     10.35913      6.23373      4.25547         0.002542      0.311467     -0.574189
C      7.29314     10.40319      3.19606        -0.801642     -0.024947      0.076653
C      6.23373     10.35913      4.25547         0.349033     -0.040889     -0.420465
C      7.29314      0.08601      7.29314        -0.386779     -0.047119     -0.259930
C      6.23373      0.13007      6.23373         0.416893     -0.153094      0.321461
C      3.19606      0.08601      3.19606         0.985509     -0.013660      0.207799
C      4.25547      0.13007      4.25547        -0.466988     -0.211027     -0.538825
C      3.19606     10.40319      7.29314         0.275440     -0.006488     -0.220740
C      4.25547     10.35913      6.23373        -0.273922     -0.029127      0.380415
C      3.19606      7.29314     10.40319         0.266333     -0.431454      0.004069
C      4.25547      6.23373     10.35913        -0.833563      0.137728      0.070883
C      7.29314      7.29314      0.08601        -0.418739     -0.337926      0.002818
C      6.23373      6.23373      0.13007         0.693755      0.150815      0.021617
C      3.19606      3.19606      0.08601         0.763174      0.314832      0.011731
C      4.25547      4.25547      0.13007        -0.397568     -0.582386     -0.011689
C      7.29314      3.19606     10.40319        -0.323299      0.392644      0.015939
C      6.23373      4.25547     10.35913         0.427855     -0.431944      0.048982
O     10.43466      3.58206      8.50569         0.081381      0.221882      0.659679
O     10.54374     17.39634      8.50569         0.014343     -0.168647      0.451658
O     10.54374      3.58206     12.47271         0.099909      0.153059     -0.534923
O     10.43466     17.39634     12.47271        -0.023851     -0.069546     -0.339984
O      8.50569     10.43466      3.58206         0.675217     -0.128980      0.224849
O      8.50569     10.54374     17.39634         0.545341      0.001975     -0.222493
O     12.47271     10.54374      3.58206        -0.833772      0.063939      0.270151
O     12.47271     10.43466     17.39634        -0.465662      0.001748     -0.208193
O      3.58206      8.50569     10.43466         0.170935      0.576287     -0.019145
O     17.39634      8.50569     10.54374        -0.151638      0.477480      0.040490
O      3.58206     12.47271     10.54374         0.075658     -0.384895      0.028158
O     17.39634     12.47271     10.43466        -0.175949     -0.514367     -0.025218
O      3.58206     10.43466      8.50569         0.176707     -0.018919      0.380201
O     17.39634     10.54374      8.50569        -0.155042      0.054822      0.398041
O      3.58206     10.54374     12.47271        -0.006360      0.047624     -0.192884
O     17.39634     10.43466     12.47271        -0.046445     -0.007129     -0.182676
O     10.43466      8.50569      3.58206        -0.098268      0.711073      0.153213
O     10.54374      8.50569     17.39634         0.004272      0.537786     -0.187279
O     10.54374     12.47271      3.58206         0.034700     -0.501418      0.051436
O     10.43466     12.47271     17.39634        -0.026902     -0.390943     -0.082424
O      8.50569      3.58206     10.43466         0.559901      0.136258     -0.033755
O      8.50569     17.39634     10.54374         0.585026     -0.190919      0.048353
O     12.47271      3.58206     10.54374        -0.747525      0.193502      0.039285
O     12.47271     17.39634     10.43466        -0.509208     -0.138280     -0.022008
O     11.90042     11.90042     19.56718        -0.294430     -0.251313      0.296610
O     19.56718     19.56718     19.56718         0.298848      0.305216      0.293733
O     19.56718     11.90042     11.90042         0.318539     -0.302282     -0.217275
O     11.90042     19.56718     11.90042        -0.309209      0.329991     -0.196898
O      9.45224      1.03696      9.45224        -0.022685      0.101187     -0.045177
O      1.03696      9.45224      9.45224         0.058554     -0.022644     -0.051674
O      1.03696      1.03696      1.03696         0.054153      0.098609      0.115176
O      9.45224      9.45224      1.03696        -0.056305     -0.037393      0.144236
Zr     10.48920      2.52580     10.48920        -0.203939     -0.294374     -0.028347
Zr     10.48920     18.45260     10.48920         0.086723      0.098262     -0.112178
Zr     10.48920     10.48920      2.52580        -0.027914      0.059928     -0.373169
Zr     10.48920     10.48920     18.45260        -0.007659     -0.062406      0.182883
Zr      2.52580     10.48920     10.48920        -0.104718     -0.116229     -0.101695
Zr     18.45260     10.48920     10.48920         0.091081     -0.001597     -0.108179
Pd     11.76781      8.61087     10.22568        -0.057166     -0.088738      0.114415
Pd      7.00511     10.21992     10.30748         0.106401     -0.148381      0.094538
Pd      7.24976     12.62924     11.69181        -0.134262     -0.028789      0.014089
Pd     11.84152     13.23928      7.33878         0.114881      0.080219     -0.065628
Pd     11.38386      8.35329      7.45801        -0.055335     -0.130518     -0.104586
Pd      8.78865      7.07784      7.44902         0.255625      0.155953     -0.294270
Pd     11.41809     10.91830      5.89496         0.170662     -0.002001      0.353540
Pd     13.45378      9.73565      7.62443         0.332357     -0.246800     -0.055472
Pd      9.32830     11.83120      7.27288        -0.006522     -0.022065      0.145695
Pd      7.06877      7.80445     11.80277         0.039363      0.030671     -0.091939
Pd      6.83581      7.71555      8.86986         0.022889      0.089385     -0.095518
Pd      7.46001     10.15879     12.84561        -0.137650     -0.054097      0.200952
Pd     11.55406      6.13460      9.01065        -0.072926      0.017176      0.113043
Pd      9.30184      9.37296      5.87860         0.129809      0.062526      0.239519
Pd      9.22268     14.14469      8.68991         0.148680     -0.126804      0.069894
Pd     11.50731      6.24951     11.65884         0.032704      0.244058      0.103423
Pd      9.56400      9.29432      8.98636         0.136236      0.061070      0.020124
Pd      9.21341     11.80042     10.05729         0.181589      0.009862      0.160291
Pd      9.35209      7.06595     10.28711        -0.104605     -0.103962     -0.037989
Pd      9.18920      7.16820     13.10328         0.068102      0.143331      0.075110
Pd      9.46027      9.44578     11.53935        -0.002337     -0.047788      0.152556
Pd     11.49018     11.03541      8.76895         0.165192     -0.107060     -0.082607
Pd      7.01273     12.58185      8.73373         0.094698     -0.208923      0.113365
Pd      7.54548      9.93641      7.84643        -0.080315      0.172738     -0.220336
Pd     13.89092      7.48488      8.91276        -0.023441     -0.043395      0.034495
Pd     13.72599      7.90314     11.93837         0.232012     -0.125204      0.151980
Pd      9.42507     11.97730     12.90984        -0.018691     -0.060981      0.078611
Pd     13.91800     12.45423      8.70895        -0.069388     -0.220501      0.039250
Pd     13.47864     10.44011     12.73305         0.042688     -0.084947      0.090977
Pd     13.87334     10.17360     10.16016         0.116216     -0.082089      0.185878
Pd     11.46095     11.16485     11.40147         0.057640     -0.021499      0.025798
Pd     11.53839     13.47924     10.00253         0.051229      0.000642     -0.107017
Pd     13.71517     12.66963     11.41371        -0.031053      0.011854      0.070162
Pd     11.67695     13.55698     12.79584        -0.044184     -0.002584      0.081215
Pd     11.53642     11.28465     14.27537        -0.020733      0.061433      0.159324
Pd     11.50986      8.71192     13.00701         0.005639     -0.033519      0.108332
Pd      9.45839      9.58088     14.42915         0.082946     -0.025397      0.175437
Pd      9.40949     14.26583     11.36201         0.041442     -0.177650      0.104967
