152
# total energy = -1024.39767854 eVH     10.35389      5.87395      7.64558         0.479122      0.030053      0.735982
H     10.62451     15.10445      7.64558         0.049018     -0.198433      0.622904
H     10.62451      5.87395     13.33282         0.091039      0.160839     -0.562993
H     10.35389     15.10445     13.33282        -0.463324     -0.040194     -0.748276
H      7.64558     10.35389      5.87395         0.339396      0.021004      0.161635
H      7.64558     10.62451     15.10445         0.901019     -0.255612      0.025539
H     13.33282     10.62451      5.87395        -0.755371     -0.079802      0.152389
H     13.33282     10.35389     15.10445        -0.881152     -0.401377      0.199018
H      5.87395      7.64558     10.35389         0.171725      0.744948     -0.307720
H     15.10445      7.64558     10.62451        -0.138704      0.387823     -0.024153
H      5.87395     13.33282     10.62451         0.159509     -0.520338     -0.110407
H     15.10445     13.33282     10.35389        -0.091583     -1.195643      0.070290
H      5.87395     10.35389      7.64558         0.142565      0.158237      0.516793
H     15.10445     10.62451      7.64558         0.003159      0.098070      1.043935
H      5.87395     10.62451     13.33282         0.085549     -0.043449     -0.451422
H     15.10445     10.35389     13.33282        -0.156977     -0.169636     -0.475058
H     10.35389      7.64558      5.87395         0.087740      1.015129      0.233859
H     10.62451      7.64558     15.10445         0.002076      0.270916     -0.166249
H     10.62451     13.33282      5.87395        -0.104387     -0.393407      0.321858
H     10.35389     13.33282     15.10445        -0.437424     -0.594115     -0.007461
H      7.64558      5.87395     10.35389         0.508091      0.098083     -0.077532
H      7.64558     15.10445     10.62451         0.929153     -0.229291     -0.159611
H     13.33282      5.87395     10.62451        -0.592975      0.105502     -0.070683
H     13.33282     15.10445     10.35389        -0.592137     -0.056936      0.242857
H     12.45634     12.45634     19.01126         0.234730      0.279527     -0.236706
H     19.01126     19.01126     19.01126        -0.250123     -0.248566     -0.241986
H     19.01126     12.45634     12.45634        -0.266080      0.265408      0.220364
H     12.45634     19.01126     12.45634         0.237645     -0.266423      0.238925
C     10.35284      5.61067      6.59456        -0.204403     -0.687562      0.097725
C     10.62556     15.36773      6.59456        -0.045871      0.386626     -0.841835
C     10.62556      5.61067     14.38384        -0.005245     -0.054819      0.681758
C     10.35284     15.36773     14.38384         0.190831      0.693947      0.164606
C      6.59456     10.35284      5.61067        -0.339527     -0.018629     -0.295284
C      6.59456     10.62556     15.36773        -1.068689      0.268057      0.302038
C     14.38384     10.62556      5.61067         0.411640      0.359680     -0.679981
C     14.38384     10.35284     15.36773         1.025595      0.011602      0.264808
C      5.61067      6.59456     10.35284        -0.388591     -0.393344      0.371942
C     15.36773      6.59456     10.62556         0.189929     -0.499760      0.017261
C      5.61067     14.38384     10.62556        -0.201549      0.581647      0.006440
C     15.36773     14.38384     10.35284         0.344292      0.046730     -0.132788
C      5.61067     10.35284      6.59456        -0.322103     -0.079868     -1.020861
C     15.36773     10.62556      6.59456         0.875165     -0.337485     -0.978894
C      5.61067     10.62556     14.38384        -0.428937      0.030621      0.304056
C     15.36773     10.35284     14.38384         0.651677     -0.095444      1.081562
C     10.35284      6.59456      5.61067        -0.229468     -0.572115     -0.930203
C     10.62556      6.59456     15.36773         0.057157     -0.269329      0.045333
C     10.62556     14.38384      5.61067         0.077195      1.201640     -0.424411
C     10.35284     14.38384     15.36773         0.266538      0.154131      0.697049
C      6.59456      5.61067     10.35284        -0.207339     -0.744022      0.124695
C      6.59456     15.36773     10.62556        -1.217449      0.252785      0.153850
C     14.38384      5.61067     10.62556         1.028782     -0.294514      0.035606
C     14.38384     15.36773     10.35284        -0.493016      0.811615     -0.401050
C     10.40319      3.19606      7.29314        -0.029852      0.863605     -0.408620
C     10.35913      4.25547      6.23373         0.054259     -0.500787      0.549706
C      0.08601      7.29314      7.29314        -0.022306     -0.428912     -0.349379
C      0.13007      6.23373      6.23373        -0.022773      0.015823      0.102684
C      0.08601      3.19606      3.19606         0.008096      1.267932      0.190491
C      0.13007      4.25547      4.25547        -0.045975     -0.215689     -0.203944
C     10.40319      7.29314      3.19606        -0.013846     -1.052885      0.367369
C     10.35913      6.23373      4.25547         0.033357      0.465215     -0.670276
C      7.29314     10.40319      3.19606        -0.315336      0.034543      0.721219
C      6.23373     10.35913      4.25547         0.159234      0.075449     -0.104189
C      7.29314      0.08601      7.29314        -0.637944     -0.023395     -0.271985
C      6.23373      0.13007      6.23373         0.378516     -0.080898      0.511383
C      3.19606      0.08601      3.19606         1.001048     -0.006587      0.251662
C      4.25547      0.13007      4.25547        -0.144332     -0.040408     -0.515258
C      3.19606     10.40319      7.29314         0.380498     -0.013193     -0.964195
C      4.25547     10.35913      6.23373        -0.274980      0.094758      0.249625
C      3.19606      7.29314     10.40319         0.508287     -1.313240     -0.040264
C      4.25547      6.23373     10.35913        -0.525335      0.758389      0.109067
C      7.29314      7.29314      0.08601        -0.396082     -0.222779     -0.001537
C      6.23373      6.23373      0.13007         0.158368      0.144468     -0.003957
C      3.19606      3.19606      0.08601         0.253915      0.257680     -0.017063
C      4.25547      4.25547      0.13007        -0.118521     -0.055897      0.009626
C      7.29314      3.19606     10.40319        -0.387908      0.653491      0.008452
C      6.23373      4.25547     10.35913         1.109349     -0.073654      0.053709
O     10.43466      3.58206      8.50569        -0.025953      0.048074      0.447449
O     10.54374     17.39634      8.50569        -0.006649     -0.106219      0.455974
O     10.54374      3.58206     12.47271         0.040247     -0.106017     -0.132000
O     10.43466     17.39634     12.47271        -0.058745     -0.044539     -0.470129
O      8.50569     10.43466      3.58206         0.294923     -0.032282     -0.031687
O      8.50569     10.54374     17.39634         0.712211      0.025104     -0.193529
O     12.47271     10.54374      3.58206        -0.788456     -0.039535      0.151571
O     12.47271     10.43466     17.39634        -0.294579     -0.027052      0.030428
O      3.58206      8.50569     10.43466         0.155715      1.082038     -0.036201
O     17.39634      8.50569     10.54374        -0.095552      0.426972      0.058375
O      3.58206     12.47271     10.54374         0.068333     -0.401625      0.037478
O     17.39634     12.47271     10.43466        -0.159943     -0.685697     -0.007111
O      3.58206     10.43466      8.50569         0.061461     -0.068536      0.798320
O     17.39634     10.54374      8.50569        -0.063166      0.047317      0.335999
O      3.58206     10.54374     12.47271        -0.013881      0.038255     -0.239780
O     17.39634     10.43466     12.47271        -0.250301      0.004826     -0.710074
O     10.43466      8.50569      3.58206         0.117857      0.833029      0.194170
O     10.54374      8.50569     17.39634         0.033065      0.626798     -0.149458
O     10.54374     12.47271      3.58206         0.004633     -1.012544      0.180942
O     10.43466     12.47271     17.39634        -0.035882     -0.915215     -0.205275
O      8.50569      3.58206     10.43466         0.555822      0.119940     -0.016138
O      8.50569     17.39634     10.54374         0.517611     -0.199404     -0.010328
O     12.47271      3.58206     10.54374        -0.472644      0.158280      0.057562
O     12.47271     17.39634     10.43466        -0.414070      0.023387     -0.005036
O     11.90042     11.90042     19.56718        -0.265256     -0.329331      0.254453
O     19.56718     19.56718     19.56718         0.280661      0.291961      0.282716
O     19.56718     11.90042     11.90042         0.300080     -0.301342     -0.203261
O     11.90042     19.56718     11.90042        -0.267985      0.285745     -0.247795
O      9.45224      1.03696      9.45224        -0.079180      0.045315     -0.061047
O      1.03696      9.45224      9.45224         0.040310     -0.152999     -0.120501
O      1.03696      1.03696      1.03696         0.021607      0.118336      0.199619
O      9.45224      9.45224      1.03696        -0.067120     -0.086364      0.119590
Zr     10.48920      2.52580     10.48920        -0.046785     -0.116016     -0.167223
Zr     10.48920     18.45260     10.48920         0.013995      0.214341     -0.022653
Zr     10.48920     10.48920      2.52580        -0.159304     -0.185619     -0.519513
Zr     10.48920     10.48920     18.45260        -0.019020      0.003674      0.449308
Zr      2.52580     10.48920     10.48920        -0.357241      0.290879      0.194803
Zr     18.45260     10.48920     10.48920         0.202309      0.050674     -0.204440
Pd      8.36719      9.73609     13.23573        -0.013174     -0.011770     -0.032772
Pd     10.51011      9.46347     10.19119        -0.010840      0.021076      0.022297
Pd     13.10505      8.74825     12.46644        -0.026341      0.053142     -0.004519
Pd     10.32401     10.75784     15.04808        -0.007663     -0.020967      0.052501
Pd     12.85107     11.34836     13.52968         0.030768     -0.014026      0.045335
Pd     14.85846     10.66433     11.35612         0.002825     -0.073635      0.007250
Pd      6.85869      7.59866     12.29813         0.029106     -0.009512      0.013987
Pd      9.22244      7.20517      9.47881        -0.010139      0.001247     -0.020729
Pd      9.55145      7.55446     12.20524         0.027927     -0.016300     -0.001114
Pd     11.75304      7.11251     10.82312        -0.013476     -0.033271      0.019761
Pd     11.63414      7.82949      8.27161        -0.022824      0.003017     -0.019936
Pd      7.15442     11.69479     11.54776         0.011650     -0.026250     -0.041453
Pd      9.29136     14.32326      9.28593        -0.003132     -0.015765     -0.021527
Pd      8.15606     12.33316     14.05643        -0.023964     -0.045751     -0.022674
Pd     14.24319     14.21180      8.33859        -0.016790     -0.024667      0.017702
Pd     11.75080     13.31800      8.79714        -0.041760      0.014696      0.070805
Pd     14.12712     11.63409      8.99005         0.008349     -0.013766     -0.026052
Pd      8.71658     13.97790     12.02805         0.023086     -0.010146      0.015728
Pd     12.22095     13.97094     13.94686        -0.028234      0.025138      0.039642
Pd     11.40907     14.12341     11.31156        -0.009096      0.001985     -0.030088
Pd     14.01379     13.31606     12.09300         0.009088      0.006487     -0.016743
Pd     12.27521     11.52787     10.87691        -0.055957      0.027253      0.043136
Pd     12.99654     12.63724      6.59372         0.046586     -0.049885     -0.043787
Pd     13.96384      8.83742      7.57796         0.018927      0.008241     -0.025050
Pd      6.98500      8.45772      8.39817        -0.041386      0.029855     -0.013868
Pd      5.54966     10.04431     10.03733         0.038414      0.001834      0.056557
Pd      9.41056      9.46621      7.48984        -0.020866     -0.023172     -0.059418
Pd      8.48463      6.97829      6.87844         0.018526      0.000887      0.002235
Pd      9.64969     11.94255     10.54215         0.071505      0.015897      0.089567
Pd     11.82097     10.62155      8.04964         0.003902     -0.029948      0.024154
Pd     11.78683      8.93542      5.85452        -0.003268     -0.015589      0.034263
Pd     10.62003     11.34019      5.74757        -0.036142      0.002600     -0.008585
Ir     10.83504      9.79111     12.69450        -0.028959     -0.015550     -0.008643
Ir     13.16733      9.26472      9.95365         0.010275     -0.010575      0.018193
Ir     10.50221     12.24551     12.90432        -0.037268      0.097813     -0.083529
Ir      7.75666     11.01896      9.05087        -0.134804     -0.042802      0.013211
Ir      9.60751     12.06560      7.98409         0.021181      0.055640     -0.095308
Ir      8.02272      9.22795     10.71278        -0.032809     -0.085605      0.130053
