35
# total energy = -258.81384713 eVC      4.74272      8.87477      7.49840        -0.016298      0.007820      0.000000
C      7.04628      2.91423      7.49840         0.016298     -0.007820      0.000000
C      2.91423      4.74272      7.49840        -0.007820     -0.016298     -0.000000
C      8.87477      7.04628      7.49840         0.007820      0.016298      0.000000
C      7.04628      8.87477      7.49840         0.016298      0.007820      0.000000
C      4.74272      2.91423      7.49840        -0.016298     -0.007820     -0.000000
C      8.87477      4.74272      7.49840         0.007820     -0.016298      0.000000
C      2.91423      7.04628      7.49840        -0.007820      0.016298     -0.000000
C      8.32223      8.32223      7.49840         0.014661      0.014661      0.000000
C      3.46677      3.46677      7.49840        -0.014661     -0.014661      0.000000
C      3.46677      8.32223      7.49840        -0.014661      0.014661      0.000000
C      8.32223      3.46677      7.49840         0.014661     -0.014661      0.000000
C     11.05520      0.73380      7.49840        -0.009832      0.009832      0.000000
C      0.73380     11.05520      7.49840         0.009832     -0.009832      0.000000
C     11.05520     11.05520      7.49840        -0.009832     -0.009832      0.000000
C      0.73380      0.73380      7.49840         0.009832      0.009832      0.000000
N      5.89450      8.13864      7.49840        -0.000000      0.003758      0.000000
N      5.89450      3.65036      7.49840         0.000000     -0.003758      0.000000
N      3.65036      5.89450      7.49840        -0.003758      0.000000      0.000000
N      8.13864      5.89450      7.49840         0.003758     -0.000000      0.000000
O      4.65603     10.22614      7.49840         0.000109      0.003473      0.000000
O      7.13297      1.56286      7.49840        -0.000109     -0.003473      0.000000
O      1.56286      4.65603      7.49840        -0.003473      0.000109     -0.000000
O     10.22614      7.13297      7.49840         0.003473     -0.000109     -0.000000
O      7.13297     10.22614      7.49840        -0.000109      0.003473     -0.000000
O      4.65603      1.56286      7.49840         0.000109     -0.003473     -0.000000
O     10.22614      4.65603      7.49840         0.003473      0.000109     -0.000000
O      1.56286      7.13297      7.49840        -0.003473     -0.000109      0.000000
Ir      9.72886      2.06014      7.49840         0.001509     -0.001509     -0.000000
Ir      2.06014      9.72886      7.49840        -0.001509      0.001509      0.000000
Ir      9.72886      9.72886      7.49840         0.001509      0.001509      0.000000
Ir      2.06014      2.06014      7.49840        -0.001509     -0.001509     -0.000000
Ir      5.89450      5.89450      7.49840         0.000000      0.000000      0.000000
Ir      5.89450     -0.00000      7.49840        -0.000000      0.000000      0.000000
Ir      0.00000      5.89450      7.49840         0.000000      0.000000      0.000000
