152
# total energy = -1023.30501254 eVH     10.35389      5.87395      7.64558         0.487764      0.082979      0.711471
H     10.62451     15.10445      7.64558        -0.097195     -0.073499      0.788002
H     10.62451      5.87395     13.33282         0.147984      0.132097     -0.634464
H     10.35389     15.10445     13.33282        -0.191862     -0.110612     -0.550989
H      7.64558     10.35389      5.87395         0.312799     -0.020763      0.194622
H      7.64558     10.62451     15.10445         0.672260     -0.226876     -0.124405
H     13.33282     10.62451      5.87395        -0.757885     -0.127837      0.203754
H     13.33282     10.35389     15.10445        -0.468730     -0.117831     -0.043931
H      5.87395      7.64558     10.35389         0.213295      1.080500     -0.248876
H     15.10445      7.64558     10.62451        -0.171864      0.459889     -0.110420
H      5.87395     13.33282     10.62451         0.162541     -0.432325     -0.067377
H     15.10445     13.33282     10.35389        -0.127024     -0.914758      0.017946
H      5.87395     10.35389      7.64558         0.136203      0.095693      0.463043
H     15.10445     10.62451      7.64558         0.095058      0.007947      1.095232
H      5.87395     10.62451     13.33282         0.188577     -0.034862     -0.393115
H     15.10445     10.35389     13.33282        -0.111483     -0.058026     -0.567608
H     10.35389      7.64558      5.87395         0.116486      0.889537      0.194018
H     10.62451      7.64558     15.10445        -0.001710      0.476516     -0.166791
H     10.62451     13.33282      5.87395        -0.024754     -0.596841      0.233509
H     10.35389     13.33282     15.10445        -0.320936     -0.882005     -0.116197
H      7.64558      5.87395     10.35389         0.439882      0.097647     -0.045177
H      7.64558     15.10445     10.62451         0.861642     -0.276168      0.041767
H     13.33282      5.87395     10.62451        -0.454098      0.184296     -0.064803
H     13.33282     15.10445     10.35389        -0.654977     -0.094587      0.164155
H     12.45634     12.45634     19.01126         0.252269      0.266079     -0.228898
H     19.01126     19.01126     19.01126        -0.251242     -0.232594     -0.260234
H     19.01126     12.45634     12.45634        -0.238171      0.273725      0.237670
H     12.45634     19.01126     12.45634         0.224456     -0.264052      0.250416
C     10.35284      5.61067      6.59456        -0.195523     -0.374923     -0.016859
C     10.62556     15.36773      6.59456         0.060266      0.383933     -1.160208
C     10.62556      5.61067     14.38384        -0.055485     -0.224554      0.797943
C     10.35284     15.36773     14.38384         0.055471      0.881189      0.386401
C      6.59456     10.35284      5.61067        -0.375227     -0.035903     -0.179376
C      6.59456     10.62556     15.36773        -0.869054      0.217797      0.379150
C     14.38384     10.62556      5.61067         0.437703      0.292634     -0.510533
C     14.38384     10.35284     15.36773         0.800269     -0.119773      0.444807
C      5.61067      6.59456     10.35284        -0.309803     -0.642131      0.422852
C     15.36773      6.59456     10.62556         0.172094     -0.520950      0.071189
C      5.61067     14.38384     10.62556        -0.145885      0.402031     -0.021681
C     15.36773     14.38384     10.35284         0.390301     -0.055297     -0.115155
C      5.61067     10.35284      6.59456        -0.256294     -0.016733     -0.781803
C     15.36773     10.62556      6.59456         0.605300     -0.282440     -1.336617
C      5.61067     10.62556     14.38384        -0.356901      0.002490      0.422674
C     15.36773     10.35284     14.38384         0.510504     -0.168536      1.156154
C     10.35284      6.59456      5.61067        -0.171615     -0.495058     -0.450250
C     10.62556      6.59456     15.36773         0.050224     -0.568634      0.257146
C     10.62556     14.38384      5.61067         0.117326      1.024111     -0.479144
C     10.35284     14.38384     15.36773         0.238363      0.569470      0.560771
C      6.59456      5.61067     10.35284        -0.105012     -0.807669      0.073288
C      6.59456     15.36773     10.62556        -1.506874      0.402587      0.102997
C     14.38384      5.61067     10.62556         0.653692     -0.266460     -0.011827
C     14.38384     15.36773     10.35284        -0.437974      0.682868     -0.315384
C     10.40319      3.19606      7.29314         0.008092      0.859406     -0.303229
C     10.35913      4.25547      6.23373        -0.048474     -0.462329      0.527431
C      0.08601      7.29314      7.29314        -0.007290     -0.277513     -0.487678
C      0.13007      6.23373      6.23373         0.024694      0.122426      0.195411
C      0.08601      3.19606      3.19606        -0.012136      0.701904      0.196962
C      0.13007      4.25547      4.25547        -0.089849     -0.184483     -0.205527
C     10.40319      7.29314      3.19606        -0.006486     -0.676406      0.554638
C     10.35913      6.23373      4.25547        -0.035839      0.297232     -0.613438
C      7.29314     10.40319      3.19606        -0.345881      0.029530      0.920369
C      6.23373     10.35913      4.25547         0.184289      0.034651     -0.123014
C      7.29314      0.08601      7.29314        -0.320878     -0.039524     -0.295229
C      6.23373      0.13007      6.23373         0.343236     -0.053905      0.339375
C      3.19606      0.08601      3.19606         0.549368     -0.034366      0.687413
C      4.25547      0.13007      4.25547        -0.091312     -0.035202     -0.382365
C      3.19606     10.40319      7.29314         0.727203      0.001729     -0.411627
C      4.25547     10.35913      6.23373        -0.164909      0.037994      0.097141
C      3.19606      7.29314     10.40319         0.651227     -1.294035     -0.011369
C      4.25547      6.23373     10.35913        -0.635043      0.911421      0.083434
C      7.29314      7.29314      0.08601        -0.649077     -0.187867     -0.019083
C      6.23373      6.23373      0.13007         0.208508      0.202677      0.012339
C      3.19606      3.19606      0.08601         0.265548      0.291145     -0.020842
C      4.25547      4.25547      0.13007        -0.071345     -0.037113      0.000003
C      7.29314      3.19606     10.40319        -0.363477      0.978917      0.015565
C      6.23373      4.25547     10.35913         1.064483     -0.019988      0.013570
O     10.43466      3.58206      8.50569        -0.043045      0.042317      0.385342
O     10.54374     17.39634      8.50569        -0.036844     -0.164780      0.573375
O     10.54374      3.58206     12.47271         0.051694      0.046116     -0.294418
O     10.43466     17.39634     12.47271        -0.012555     -0.132710     -0.623407
O      8.50569     10.43466      3.58206         0.364814     -0.024081     -0.025161
O      8.50569     10.54374     17.39634         0.478108      0.045570     -0.146556
O     12.47271     10.54374      3.58206        -0.500074      0.012516      0.087571
O     12.47271     10.43466     17.39634        -0.808313      0.001930     -0.193891
O      3.58206      8.50569     10.43466         0.117624      1.055778      0.016960
O     17.39634      8.50569     10.54374        -0.036844      0.323109      0.074283
O      3.58206     12.47271     10.54374         0.072095     -0.459770      0.050529
O     17.39634     12.47271     10.43466        -0.176510     -0.881083      0.052739
O      3.58206     10.43466      8.50569        -0.065906     -0.069989      0.322542
O     17.39634     10.54374      8.50569        -0.129275      0.042886      0.458828
O      3.58206     10.54374     12.47271         0.082415     -0.020873     -0.620308
O     17.39634     10.43466     12.47271        -0.183107      0.052767     -0.769040
O     10.43466      8.50569      3.58206         0.030646      0.667268      0.157254
O     10.54374      8.50569     17.39634         0.062722      0.463410     -0.086662
O     10.54374     12.47271      3.58206        -0.019494     -0.771586      0.238259
O     10.43466     12.47271     17.39634         0.034885     -0.869717     -0.243507
O      8.50569      3.58206     10.43466         0.451232      0.027443     -0.036917
O      8.50569     17.39634     10.54374         0.674573     -0.262590     -0.058076
O     12.47271      3.58206     10.54374        -0.461356      0.152476      0.043750
O     12.47271     17.39634     10.43466        -0.532012     -0.013451     -0.008985
O     11.90042     11.90042     19.56718        -0.292439     -0.314461      0.254817
O     19.56718     19.56718     19.56718         0.283498      0.267308      0.310910
O     19.56718     11.90042     11.90042         0.262749     -0.321512     -0.237440
O     11.90042     19.56718     11.90042        -0.271247      0.280950     -0.265421
O      9.45224      1.03696      9.45224        -0.081694      0.042234     -0.068515
O      1.03696      9.45224      9.45224         0.017643     -0.165419     -0.099006
O      1.03696      1.03696      1.03696         0.001180      0.071735      0.184212
O      9.45224      9.45224      1.03696        -0.062749     -0.093728      0.112321
Zr     10.48920      2.52580     10.48920        -0.002819     -0.093002     -0.060724
Zr     10.48920     18.45260     10.48920         0.120308      0.334834     -0.005510
Zr     10.48920     10.48920      2.52580         0.020262     -0.057430     -0.416617
Zr     10.48920     10.48920     18.45260        -0.164811     -0.063790      0.389749
Zr      2.52580     10.48920     10.48920        -0.334505      0.247780     -0.110182
Zr     18.45260     10.48920     10.48920         0.274104     -0.009493     -0.286090
Pd      8.96074     10.12097     13.32664        -0.053019     -0.016241      0.022408
Pd     10.68595      9.68853     10.79713         0.001952     -0.025795     -0.080530
Pd     13.72341      8.44690     12.57844        -0.023308      0.051173     -0.017697
Pd     10.99207     10.90505     14.98304        -0.031208     -0.016125      0.024592
Pd     12.92282     11.06782     13.01078         0.016062      0.039403      0.062582
Pd     15.08383     11.07892     11.31481        -0.022796     -0.042246     -0.001572
Pd      6.61009      7.71770     12.32759        -0.003438      0.032613      0.018305
Pd      9.31534      7.30669      9.85307        -0.008946     -0.007389     -0.025932
Pd      9.24202      7.48079     12.61575         0.015421     -0.012227     -0.022586
Pd     11.65004      7.18495     11.40248         0.002325      0.021063     -0.015864
Pd     11.70184      7.98370      8.86517        -0.004036     -0.033375     -0.048812
Pd      7.35833     11.78116     11.78289        -0.025311     -0.012970     -0.018278
Pd      9.19143     14.71774      9.44185        -0.000073     -0.043726      0.001620
Pd      8.38245     12.55290     14.26815        -0.031513     -0.019097      0.002853
Pd     14.09682     14.25320      8.31315         0.004072     -0.007570      0.003131
Pd     11.51276     13.63584      8.74383         0.017016     -0.019847      0.024181
Pd     14.15203     11.69398      8.88880        -0.012520     -0.003635     -0.000421
Pd      8.71678     14.03273     12.08465        -0.006912     -0.009058      0.011295
Pd     12.26307     13.54096     14.14212        -0.017162      0.032682     -0.008220
Pd     11.34773     14.39819     11.44595         0.007355     -0.027093      0.002930
Pd     14.07039     13.59800     12.25998        -0.005963     -0.016514     -0.009925
Pd     12.41428     12.12158     10.73940        -0.014977     -0.065084      0.013768
Pd     12.75284     12.54466      6.67165        -0.006866      0.010033     -0.007264
Pd     13.93705      8.99830      7.96186         0.013373     -0.015722     -0.053537
Pd      6.94474      8.49841      8.75757         0.013319      0.004764     -0.007431
Pd      5.62286     10.09930     10.69597         0.018745     -0.004766     -0.066677
Pd      9.39428      9.46947      8.07199        -0.004100     -0.033628     -0.068938
Pd      8.56285      7.02825      7.22732        -0.017601     -0.030445     -0.018117
Pd      9.75397     12.11355     10.39311         0.026953     -0.026473      0.075170
Pd     11.63139     10.81945      8.45406        -0.014282     -0.006092     -0.036650
Pd     11.59249      9.09084      6.43682         0.018118     -0.007928     -0.042145
Pd     10.10292     11.33699      6.24368         0.011399     -0.006727     -0.054239
Ir     11.28198      9.04870     13.18139        -0.012145      0.048548     -0.062196
Ir     13.22075      9.59973     10.34845        -0.007676     -0.039471     -0.030400
Ir     10.54560     12.22119     12.76347        -0.013982     -0.027794      0.018647
Ir      7.61127     11.00845      9.25107        -0.048457     -0.105738      0.045990
Ir      8.92946     12.55584      8.07549         0.140008      0.014772     -0.089094
Ir      8.19593      9.31607     11.00783        -0.034584      0.009145     -0.037057
