152
# total energy = -1004.53840474 eVH     10.35389      5.87395      7.64558        -0.123049      0.111454      0.672423
H     10.62451     15.10445      7.64558        -0.095203     -0.183939      0.526546
H     10.62451      5.87395     13.33282         0.403916      0.016780     -0.865512
H     10.35389     15.10445     13.33282         0.047842     -0.170111     -0.499139
H      7.64558     10.35389      5.87395         0.359982      0.043322      0.150865
H      7.64558     10.62451     15.10445         0.966549      0.632873      0.015422
H     13.33282     10.62451      5.87395        -0.470255      0.141911      0.143913
H     13.33282     10.35389     15.10445        -0.828734     -0.244748      0.033136
H      5.87395      7.64558     10.35389         0.229815      1.763316      0.196318
H     15.10445      7.64558     10.62451        -0.088104      0.512572      0.258179
H      5.87395     13.33282     10.62451         0.194701     -0.560408     -0.011868
H     15.10445     13.33282     10.35389         0.155380     -1.270903     -0.469555
H      5.87395     10.35389      7.64558         0.144134      0.044999      0.490127
H     15.10445     10.62451      7.64558        -0.208632      0.787272      1.274286
H      5.87395     10.62451     13.33282         0.005224      0.505527     -1.176098
H     15.10445     10.35389     13.33282         0.042460     -0.198486     -0.792959
H     10.35389      7.64558      5.87395         0.199501      1.327239      0.100076
H     10.62451      7.64558     15.10445         0.527973      0.771593     -0.096233
H     10.62451     13.33282      5.87395        -0.383680     -0.684906      0.313793
H     10.35389     13.33282     15.10445        -0.261064     -0.489235     -0.331102
H      7.64558      5.87395     10.35389         1.152668     -0.221616     -0.074080
H      7.64558     15.10445     10.62451         0.839173     -0.187447     -0.007655
H     13.33282      5.87395     10.62451        -0.596072      0.129463      0.642487
H     13.33282     15.10445     10.35389        -0.568361     -0.025993     -0.255548
H     12.45634     12.45634     19.01126         0.267131      0.257621     -0.229829
H     19.01126     19.01126     19.01126        -0.270943     -0.261305     -0.222420
H     19.01126     12.45634     12.45634        -0.278215      0.257376      0.225051
H     12.45634     19.01126     12.45634         0.240971     -0.279625      0.245073
C     10.35284      5.61067      6.59456        -0.166564     -0.814711     -0.372507
C     10.62556     15.36773      6.59456         0.047172      0.232321     -0.339333
C     10.62556      5.61067     14.38384        -0.029227     -0.418215      0.584059
C     10.35284     15.36773     14.38384         0.005757      0.266010      0.497866
C      6.59456     10.35284      5.61067        -0.453690      0.041729     -0.299766
C      6.59456     10.62556     15.36773        -0.930928      0.154050      0.689625
C     14.38384     10.62556      5.61067         0.589002     -0.027249     -0.893121
C     14.38384     10.35284     15.36773         0.931734     -0.119148      0.337933
C      5.61067      6.59456     10.35284        -0.886803     -0.930275     -0.423394
C     15.36773      6.59456     10.62556         0.691823     -0.019446     -0.255109
C      5.61067     14.38384     10.62556        -0.244852      0.607826      0.014239
C     15.36773     14.38384     10.35284         0.320982      1.235127      0.083818
C      5.61067     10.35284      6.59456        -0.276818      0.016924     -0.709116
C     15.36773     10.62556      6.59456         0.536535     -0.282694     -0.758301
C      5.61067     10.62556     14.38384        -0.520542     -0.019627      0.752222
C     15.36773     10.35284     14.38384         0.504536     -0.085549      1.058389
C     10.35284      6.59456      5.61067        -0.068324     -0.919527     -0.383445
C     10.62556      6.59456     15.36773         0.133485     -0.794186      0.499673
C     10.62556     14.38384      5.61067         0.111111      1.115216     -0.298721
C     10.35284     14.38384     15.36773        -0.027584      1.077814      0.515402
C      6.59456      5.61067     10.35284        -0.518522     -1.250309      0.101025
C      6.59456     15.36773     10.62556        -1.004964      0.191649      0.100481
C     14.38384      5.61067     10.62556        -0.144561     -0.479725     -0.296598
C     14.38384     15.36773     10.35284         0.287868      0.562704     -0.059063
C     10.40319      3.19606      7.29314         0.011419      0.895098     -0.521895
C     10.35913      4.25547      6.23373         0.047054     -0.549066      0.134410
C      0.08601      7.29314      7.29314        -0.028444     -0.984440     -0.209245
C      0.13007      6.23373      6.23373        -0.096666      0.301182      0.319408
C      0.08601      3.19606      3.19606         0.053731      1.357488      0.147887
C      0.13007      4.25547      4.25547        -0.034560     -0.357114     -0.362998
C     10.40319      7.29314      3.19606        -0.002449     -0.481736      0.267650
C     10.35913      6.23373      4.25547        -0.013181      0.109630     -0.748479
C      7.29314     10.40319      3.19606        -0.289323      0.019204      0.535050
C      6.23373     10.35913      4.25547         0.206178      0.086846     -0.112132
C      7.29314      0.08601      7.29314        -1.024877     -0.100286     -0.370432
C      6.23373      0.13007      6.23373         0.693924     -0.198091      0.460326
C      3.19606      0.08601      3.19606         1.251733     -0.017745      0.440330
C      4.25547      0.13007      4.25547        -0.679296     -0.177954     -0.299468
C      3.19606     10.40319      7.29314         0.569232      0.021848     -0.373678
C      4.25547     10.35913      6.23373        -0.233049      0.104790      0.224945
C      3.19606      7.29314     10.40319         0.343257     -0.895681      0.034601
C      4.25547      6.23373     10.35913        -1.110940      0.153881      0.187077
C      7.29314      7.29314      0.08601        -0.474557     -0.504985     -0.015135
C      6.23373      6.23373      0.13007         0.489442      0.322009      0.005059
C      3.19606      3.19606      0.08601         0.526887      0.404787     -0.025153
C      4.25547      4.25547      0.13007        -0.029846     -0.725921     -0.094232
C      7.29314      3.19606     10.40319        -0.399107      0.506549      0.056000
C      6.23373      4.25547     10.35913         0.563396     -0.700388      0.224721
O     10.43466      3.58206      8.50569        -0.003046      0.072190      0.487075
O     10.54374     17.39634      8.50569         0.057035     -0.020643      0.257871
O     10.54374      3.58206     12.47271        -0.002960     -0.095924     -0.115148
O     10.43466     17.39634     12.47271        -0.037557     -0.135390     -0.485285
O      8.50569     10.43466      3.58206         0.358824     -0.024764      0.041852
O      8.50569     10.54374     17.39634         0.851373     -0.051713     -0.155762
O     12.47271     10.54374      3.58206        -0.891411      0.101670      0.047911
O     12.47271     10.43466     17.39634        -0.588277      0.024024     -0.145508
O      3.58206      8.50569     10.43466         0.190961      0.900243     -0.017854
O     17.39634      8.50569     10.54374        -0.151483      0.675946      0.043414
O      3.58206     12.47271     10.54374         0.104589     -0.544540      0.052370
O     17.39634     12.47271     10.43466        -0.165888     -0.603077     -0.035137
O      3.58206     10.43466      8.50569         0.077593     -0.061731      0.464529
O     17.39634     10.54374      8.50569         0.021853      0.096385      0.398157
O      3.58206     10.54374     12.47271        -0.032978      0.026501     -0.344401
O     17.39634     10.43466     12.47271        -0.209022     -0.034020     -0.668537
O     10.43466      8.50569      3.58206        -0.033974      0.570040      0.159321
O     10.54374      8.50569     17.39634        -0.089982      0.795138     -0.226944
O     10.54374     12.47271      3.58206         0.083934     -0.943435      0.110779
O     10.43466     12.47271     17.39634         0.071562     -0.747932     -0.195089
O      8.50569      3.58206     10.43466         0.571061      0.142747     -0.047920
O      8.50569     17.39634     10.54374         0.552197     -0.150002      0.001394
O     12.47271      3.58206     10.54374        -0.687351      0.152932      0.020774
O     12.47271     17.39634     10.43466        -0.415394     -0.046637     -0.034879
O     11.90042     11.90042     19.56718        -0.315893     -0.293568      0.238737
O     19.56718     19.56718     19.56718         0.308048      0.306174      0.216912
O     19.56718     11.90042     11.90042         0.331297     -0.270946     -0.232542
O     11.90042     19.56718     11.90042        -0.258660      0.343171     -0.267505
O      9.45224      1.03696      9.45224        -0.020344      0.081030     -0.131510
O      1.03696      9.45224      9.45224         0.067929     -0.041484     -0.136827
O      1.03696      1.03696      1.03696         0.085968      0.116356      0.075810
O      9.45224      9.45224      1.03696        -0.068353     -0.058656      0.058001
Zr     10.48920      2.52580     10.48920        -0.052875     -0.205930      0.026051
Zr     10.48920     18.45260     10.48920        -0.013057      0.085240      0.177609
Zr     10.48920     10.48920      2.52580        -0.283017     -0.426738     -0.320331
Zr     10.48920     10.48920     18.45260         0.073076      0.030618      0.429155
Zr      2.52580     10.48920     10.48920        -0.220553      0.113070      0.016344
Zr     18.45260     10.48920     10.48920         0.177391     -0.011324     -0.012383
Pd     13.06748      8.54054      9.79157         0.055489      0.004121     -0.100043
Pd      6.16765      9.65429     10.20928        -0.034784      0.012830      0.002261
Pd      6.97551     11.59438     11.77459        -0.037124      0.031026     -0.017103
Pd     12.35135     13.19537      7.33447        -0.077996     -0.023259      0.049302
Pd     12.12989      7.80124      7.06971         0.007985     -0.053115      0.028611
Pd      8.47207      7.27467      6.89913        -0.014001     -0.027593      0.022625
Pd     11.31804     11.41069      5.55768        -0.032510      0.037867      0.086704
Pd     14.54572      8.76674      7.53708        -0.012618      0.014890     -0.060122
Pd      9.92851     11.82216      7.97845        -0.015982     -0.031442      0.011860
Pd      7.02710      7.12677     12.03793        -0.017500     -0.123951      0.064780
Pd      6.34005      7.49534      8.41883         0.042022     -0.023070     -0.044114
Pd      7.22175      9.10313     13.70635        -0.076841      0.064091     -0.054809
Pd     11.43632      6.36597      9.21754         0.020586      0.083003      0.058825
Pd      9.99102      9.48532      6.63478        -0.066207      0.022934      0.027897
Pd      9.03560     14.01898      9.35826         0.097892     -0.033873     -0.044540
Pd     10.84636      7.46858     11.45840         0.001600     -0.083629     -0.085938
Pd     10.48442      9.11813      9.30216        -0.096804     -0.062770      0.028214
Pd      9.49787     11.52912     10.57687         0.037546      0.010883      0.100511
Pd      8.86357      7.10317      9.59727         0.062408      0.087968     -0.083620
Pd      9.19898      7.43429     13.48127        -0.080508     -0.061019     -0.053894
Pd      8.58223      9.20713     11.33263         0.000038      0.021051     -0.015611
Pd     12.26416     10.42023      7.86604         0.059937     -0.016367     -0.078466
Pd      7.31556     11.97199      9.14922        -0.091474     -0.036042     -0.032320
Pd      8.07236      9.57858      8.40105         0.087325     -0.001368      0.059788
Pd     14.02449      6.37094      8.51156         0.009539      0.002328     -0.049376
Pd     13.12755      8.49215     12.42099         0.010190      0.060561     -0.024518
Pd      8.98644     11.42687     13.38881        -0.013331      0.112847     -0.042322
Pd     13.88589     12.00282      9.10355         0.008593      0.055487      0.030057
Pd     13.15835     11.17579     13.18721        -0.019533     -0.072700      0.007986
Pd     14.69500     10.36933     11.06367        -0.035640     -0.027111     -0.089889
Pd     12.04715     10.79347     10.72614         0.013915      0.032558     -0.059758
Pd     11.51669     13.31969      9.81786         0.035468     -0.115139      0.081336
Pd     13.64146     13.16348     11.59392        -0.108157     -0.057262      0.028029
Pd     11.13502     12.78896     12.42122         0.062540     -0.020215     -0.029501
Pd     11.21561     11.59978     14.89023        -0.101834     -0.105008      0.016060
Pd     10.86532      9.73199     12.82607         0.026749      0.012568      0.145396
Pd      9.54414      9.52257     15.20887         0.072335      0.032078     -0.001083
Pd      8.71349     13.73012     11.99876        -0.053622     -0.044393      0.059703
