26
# total energy = -169.64893883 eVH      0.37188      6.90945      7.50000         0.004703     -0.011682     -0.000000
H      2.82216      2.06223      7.50000        -0.002116      0.007896      0.000000
H      6.19370      6.71708      7.50000        -0.011280      0.027162     -0.000000
H      8.94210     -1.55460      7.50000        -0.004703      0.011682     -0.000000
H      6.49182      3.29262      7.50000         0.002116     -0.007896      0.000000
H      3.12028     -1.36223      7.50000         0.011280     -0.027162     -0.000000
C      8.50843      4.15764      7.50000         0.008626      0.015129      0.000000
C      1.45233     -0.08529      7.50000        -0.001616      0.027454      0.000000
C      8.70860     -3.71331      7.50000        -0.033463     -0.016902     -0.000000
C      0.80555      1.19721      7.50000        -0.008626     -0.015129     -0.000000
C      7.86165      5.44014      7.50000         0.001616     -0.027454     -0.000000
C      0.60538      9.06816      7.50000         0.033463      0.016902      0.000000
C      8.20564     -2.36178      7.50000         0.004999     -0.002885     -0.000000
C      7.54970      2.98326      7.50000         0.009120     -0.012073     -0.000000
C      2.85657     -0.31260      7.50000         0.020490      0.017690      0.000000
C      1.10834      7.71663      7.50000        -0.004999      0.002885     -0.000000
C      1.76428      2.37159      7.50000        -0.009120      0.012073     -0.000000
C      6.45742      5.66745      7.50000        -0.020490     -0.017690      0.000000
O      6.96102     -2.07227      7.50000        -0.009164      0.016154      0.000000
O      7.81314      1.78075      7.50000        -0.002289     -0.009715     -0.000000
O      3.86899      0.51877      7.50000         0.007629      0.014980     -0.000000
O      2.35296      7.42712      7.50000         0.009164     -0.016154      0.000000
O      1.50084      3.57410      7.50000         0.002289      0.009715     -0.000000
O      5.44499      4.83608      7.50000        -0.007629     -0.014980     -0.000000
Au      5.62406     -0.55178      7.50000         0.007131     -0.000971     -0.000000
Au      3.68992      5.90663      7.50000        -0.007131      0.000971      0.000000
