38
# total energy = -255.12916544 eVH      1.22512      6.94184      7.50000        -0.004119      0.008181      0.000000
H      8.09874      6.77150      7.50000         0.006781      0.000907     -0.000000
H      4.45924     13.86721      7.50000         0.001017     -0.006562     -0.000000
H     12.67469      2.18129      7.50000         0.004119     -0.008181      0.000000
H      5.80108      2.35162      7.50000        -0.006781     -0.000907      0.000000
H      9.44057     -4.74409      7.50000        -0.001017      0.006562     -0.000000
H      5.81480     -2.34390      7.50000         0.000272     -0.016728     -0.000000
H      9.44195      4.72849      7.50000        -0.017550     -0.006226     -0.000000
H     12.66441     -2.17407      7.50000        -0.000263      0.000617      0.000000
H      8.08501     11.46703      7.50000        -0.000272      0.016728     -0.000000
H      4.45786      4.39463      7.50000         0.017550      0.006226     -0.000000
H      1.23540     11.29719      7.50000         0.000263     -0.000617      0.000000
C      7.73813     -3.36941      7.50000        -0.031011     -0.000552     -0.000000
C     12.48290      0.00358      7.50000         0.000622      0.012531      0.000000
C      7.73066      3.36402      7.50000        -0.015085      0.004081      0.000000
C      6.16169     12.49253      7.50000         0.031011      0.000552     -0.000000
C      1.41691      9.11954      7.50000        -0.000622     -0.012531     -0.000000
C      6.16915      5.75911      7.50000         0.015085     -0.004081     -0.000000
C     13.20744     -1.22697      7.50000         0.000492      0.006125     -0.000000
C      8.35169      4.64355      7.50000        -0.009021      0.016772      0.000000
C      6.31621     -3.31491      7.50000        -0.015651     -0.019195      0.000000
C      0.69237     10.35009      7.50000        -0.000492     -0.006125      0.000000
C      5.54812      4.47957      7.50000         0.009021     -0.016772     -0.000000
C      7.58360     12.43803      7.50000         0.015651      0.019195      0.000000
C      5.54844     13.77552      7.50000         0.017854      0.024694     -0.000000
C      7.59094      5.80443      7.50000         0.013810     -0.032734     -0.000000
C      0.68692      7.89192      7.50000         0.013578      0.026322      0.000000
C      8.35137     -4.65240      7.50000        -0.017854     -0.024694      0.000000
C      6.30887      3.31869      7.50000        -0.013810      0.032734     -0.000000
C     13.21289      1.23121      7.50000        -0.013578     -0.026322      0.000000
N      5.84863      9.12996      7.50000         0.014878      0.005828      0.000000
N      8.05119     -0.00683      7.50000        -0.014878     -0.005828     -0.000000
Ir      8.77585      1.64766      7.50000        -0.002399      0.017508     -0.000000
Ir      8.78631     -1.65718      7.50000        -0.002267     -0.014791     -0.000000
Ir     10.55110      0.00125      7.50000        -0.021513     -0.002608     -0.000000
Ir      5.12396      7.47546      7.50000         0.002399     -0.017508     -0.000000
Ir      5.11350     10.78030      7.50000         0.002267      0.014791     -0.000000
Ir      3.34871      9.12187      7.50000         0.021513      0.002608     -0.000000
