152
# total energy = -1022.83425295 eVH     10.35389      5.87395      7.64558         0.480438      0.030671      0.908587
H     10.62451     15.10445      7.64558        -0.042512      0.052834      0.772577
H     10.62451      5.87395     13.33282         0.143368      0.114985     -0.604013
H     10.35389     15.10445     13.33282        -0.259024     -0.079309     -0.558024
H      7.64558     10.35389      5.87395         0.330534     -0.037094      0.189991
H      7.64558     10.62451     15.10445         0.613958     -0.188457     -0.145705
H     13.33282     10.62451      5.87395        -0.863178     -0.326140      0.165859
H     13.33282     10.35389     15.10445        -0.447848     -0.075690     -0.071781
H      5.87395      7.64558     10.35389         0.124987      1.131272     -0.148345
H     15.10445      7.64558     10.62451        -0.170701      0.402327     -0.087176
H      5.87395     13.33282     10.62451         0.142261     -0.404475     -0.071939
H     15.10445     13.33282     10.35389        -0.079030     -0.968150     -0.194352
H      5.87395     10.35389      7.64558         0.125332      0.035629      0.477714
H     15.10445     10.62451      7.64558         0.127512     -0.217432      0.806430
H      5.87395     10.62451     13.33282         0.273087     -0.024302     -0.393669
H     15.10445     10.35389     13.33282        -0.157307      0.016701     -0.607604
H     10.35389      7.64558      5.87395         0.066221      0.842229      0.118183
H     10.62451      7.64558     15.10445         0.020154      0.581059     -0.140906
H     10.62451     13.33282      5.87395         0.069301     -0.601882      0.174326
H     10.35389     13.33282     15.10445        -0.247595     -0.894682     -0.110562
H      7.64558      5.87395     10.35389         0.526020      0.039085     -0.135443
H      7.64558     15.10445     10.62451         0.922127     -0.199307      0.304883
H     13.33282      5.87395     10.62451        -0.436435      0.187929     -0.058638
H     13.33282     15.10445     10.35389        -1.012145     -0.097217      0.276901
H     12.45634     12.45634     19.01126         0.266815      0.256987     -0.224744
H     19.01126     19.01126     19.01126        -0.247741     -0.235446     -0.261951
H     19.01126     12.45634     12.45634        -0.241255      0.270085      0.239681
H     12.45634     19.01126     12.45634         0.210291     -0.283422      0.253063
C     10.35284      5.61067      6.59456        -0.130391     -0.431061     -0.412618
C     10.62556     15.36773      6.59456         0.019396      0.348459     -1.156120
C     10.62556      5.61067     14.38384        -0.029343     -0.226669      0.725050
C     10.35284     15.36773     14.38384         0.181937      0.769026      0.146830
C      6.59456     10.35284      5.61067        -0.411285     -0.041148     -0.180958
C      6.59456     10.62556     15.36773        -0.777542      0.149337      0.347585
C     14.38384     10.62556      5.61067         0.631838      0.288628     -0.363269
C     14.38384     10.35284     15.36773         0.718435     -0.118501      0.417643
C      5.61067      6.59456     10.35284        -0.430337     -0.763637      0.275569
C     15.36773      6.59456     10.62556         0.199233     -0.466069      0.048216
C      5.61067     14.38384     10.62556        -0.261390      0.372484     -0.022191
C     15.36773     14.38384     10.35284         0.393763      0.155804      0.205553
C      5.61067     10.35284      6.59456        -0.313238     -0.013832     -0.894025
C     15.36773     10.62556      6.59456         0.575676     -0.156310     -1.235441
C      5.61067     10.62556     14.38384        -0.463121      0.009148      0.918040
C     15.36773     10.35284     14.38384         0.517502     -0.173952      1.243558
C     10.35284      6.59456      5.61067        -0.036595     -0.909847     -0.672684
C     10.62556      6.59456     15.36773         0.049147     -0.700069      0.300743
C     10.62556     14.38384      5.61067         0.041405      1.253393     -0.700410
C     10.35284     14.38384     15.36773         0.105007      0.611673      0.651797
C      6.59456      5.61067     10.35284        -0.221015     -0.905016      0.133383
C      6.59456     15.36773     10.62556        -1.736712      0.496319      0.039160
C     14.38384      5.61067     10.62556         0.580383     -0.227553     -0.008502
C     14.38384     15.36773     10.35284         0.187039      0.552931     -0.235409
C     10.40319      3.19606      7.29314         0.014929      0.900526     -0.249906
C     10.35913      4.25547      6.23373        -0.051218     -0.368754      0.611010
C      0.08601      7.29314      7.29314        -0.008808     -0.235672     -0.464406
C      0.13007      6.23373      6.23373         0.002528      0.125680      0.211810
C      0.08601      3.19606      3.19606        -0.016906      0.632622      0.181298
C      0.13007      4.25547      4.25547        -0.091955     -0.199751     -0.165850
C     10.40319      7.29314      3.19606        -0.002555     -0.685742      0.529876
C     10.35913      6.23373      4.25547        -0.007348      0.509012     -0.393133
C      7.29314     10.40319      3.19606        -0.339133      0.022556      0.858186
C      6.23373     10.35913      4.25547         0.206469      0.010815     -0.143289
C      7.29314      0.08601      7.29314        -0.306494     -0.046409     -0.270378
C      6.23373      0.13007      6.23373         0.267111     -0.058016      0.290134
C      3.19606      0.08601      3.19606         0.425251     -0.051981      1.311534
C      4.25547      0.13007      4.25547        -0.118080     -0.027038     -0.461853
C      3.19606     10.40319      7.29314         0.697678      0.014959     -0.264876
C      4.25547     10.35913      6.23373        -0.132103      0.028785      0.101790
C      3.19606      7.29314     10.40319         0.607038     -1.269807      0.026538
C      4.25547      6.23373     10.35913        -0.731050      0.830987      0.043001
C      7.29314      7.29314      0.08601        -0.650917     -0.169344     -0.022559
C      6.23373      6.23373      0.13007         0.169648      0.275067     -0.009274
C      3.19606      3.19606      0.08601         0.240229      0.249253     -0.019758
C      4.25547      4.25547      0.13007        -0.053958     -0.036833      0.013288
C      7.29314      3.19606     10.40319        -0.372601      0.791927      0.016542
C      6.23373      4.25547     10.35913         0.873992     -0.162731      0.010108
O     10.43466      3.58206      8.50569        -0.049386      0.034277      0.320689
O     10.54374     17.39634      8.50569        -0.023388     -0.182652      0.600241
O     10.54374      3.58206     12.47271         0.054837      0.065390     -0.326668
O     10.43466     17.39634     12.47271        -0.023129     -0.126738     -0.583834
O      8.50569     10.43466      3.58206         0.381161     -0.025208     -0.013343
O      8.50569     10.54374     17.39634         0.469175      0.053484     -0.143462
O     12.47271     10.54374      3.58206        -0.276471      0.050527     -0.079683
O     12.47271     10.43466     17.39634        -0.848941      0.020268     -0.222643
O      3.58206      8.50569     10.43466         0.039628      0.917281      0.041749
O     17.39634      8.50569     10.54374        -0.041436      0.339940      0.077846
O      3.58206     12.47271     10.54374         0.065490     -0.420408      0.064145
O     17.39634     12.47271     10.43466        -0.170272     -0.777250      0.018781
O      3.58206     10.43466      8.50569        -0.054036     -0.065656      0.231438
O     17.39634     10.54374      8.50569        -0.137023      0.042601      0.458485
O      3.58206     10.54374     12.47271        -0.021687     -0.052759     -0.894093
O     17.39634     10.43466     12.47271        -0.198204      0.043251     -0.767312
O     10.43466      8.50569      3.58206         0.043268      0.677235      0.190301
O     10.54374      8.50569     17.39634         0.052768      0.431557     -0.081103
O     10.54374     12.47271      3.58206        -0.006502     -0.721223      0.225506
O     10.43466     12.47271     17.39634         0.046462     -0.845083     -0.273253
O      8.50569      3.58206     10.43466         0.492541      0.076016     -0.038731
O      8.50569     17.39634     10.54374         0.649674     -0.249876     -0.059345
O     12.47271      3.58206     10.54374        -0.486055      0.163929      0.039990
O     12.47271     17.39634     10.43466        -0.533319     -0.038808     -0.030211
O     11.90042     11.90042     19.56718        -0.304931     -0.312609      0.265346
O     19.56718     19.56718     19.56718         0.286782      0.272171      0.320724
O     19.56718     11.90042     11.90042         0.279626     -0.330838     -0.245575
O     11.90042     19.56718     11.90042        -0.227190      0.290780     -0.240451
O      9.45224      1.03696      9.45224        -0.074845      0.047363     -0.066743
O      1.03696      9.45224      9.45224         0.056762     -0.143175     -0.055761
O      1.03696      1.03696      1.03696         0.045820      0.030929      0.185903
O      9.45224      9.45224      1.03696        -0.040304     -0.091750      0.121655
Zr     10.48920      2.52580     10.48920        -0.008017     -0.072083     -0.022284
Zr     10.48920     18.45260     10.48920         0.053846      0.304098     -0.074624
Zr     10.48920     10.48920      2.52580        -0.107050      0.017914     -0.366061
Zr     10.48920     10.48920     18.45260        -0.130303     -0.154583      0.323929
Zr      2.52580     10.48920     10.48920        -0.346181      0.319200     -0.472637
Zr     18.45260     10.48920     10.48920         0.243538      0.037092     -0.260248
Pd      9.04740     10.26362     13.32590        -0.015077     -0.018586      0.009298
Pd     10.58850      9.73206     11.00130        -0.009274     -0.016649     -0.054154
Pd     13.75988      8.53636     12.68734         0.015889     -0.000502     -0.000026
Pd     11.00038     11.07958     15.01547         0.003065     -0.019478      0.001219
Pd     12.83894     11.16981     13.00349         0.026561      0.007362      0.007141
Pd     14.97724     10.93453     11.34765         0.018106      0.007596     -0.007474
Pd      6.64690      7.43169     12.34168         0.002503      0.014847      0.003021
Pd      9.22766      7.25767     10.13052         0.006659      0.009684     -0.033193
Pd      9.25861      7.60542     12.80365         0.015815     -0.007111     -0.019750
Pd     11.69258      7.28454     11.46779         0.012895      0.004330     -0.008954
Pd     11.39226      7.99709      8.86736         0.034849     -0.005417     -0.010460
Pd      7.26116     11.83343     11.95936         0.004153     -0.004121     -0.019824
Pd      8.88663     14.66893      9.32694         0.036682      0.013393      0.014397
Pd      8.42234     12.65697     14.32239        -0.013661     -0.009733     -0.003788
Pd     13.50530     14.08611      8.57580         0.071312      0.025112     -0.046985
Pd     10.96115     13.32935      8.50452         0.080440      0.035797      0.036688
Pd     14.09235     11.51518      8.92885         0.004823      0.029063     -0.003058
Pd      8.61442     14.10965     12.10175         0.013397     -0.008597     -0.001093
Pd     12.24440     13.73027     14.02293        -0.007060     -0.016774      0.006295
Pd     11.14326     14.44440     11.13742         0.024959     -0.016526      0.035105
Pd     14.06467     13.54370     12.17775        -0.013372      0.007581     -0.008175
Pd     12.31222     12.17050     10.66402        -0.007639     -0.027989      0.019666
Pd     12.66815     12.32111      6.72453         0.010648      0.034411     -0.012776
Pd     13.65154      8.93887      7.92392         0.037809      0.005330      0.011516
Pd      6.85834      8.45743      8.85429         0.014985      0.011910     -0.008767
Pd      5.52783      9.92387     11.28326         0.011056      0.035225     -0.059590
Pd      9.14074      9.74598      8.31790         0.027708     -0.014166     -0.015007
Pd      8.81821      7.23506      7.47222        -0.008723      0.004099     -0.035209
Pd      9.52009     12.08249     10.42133         0.019480      0.005321      0.002585
Pd     11.53102     10.70729      8.58515         0.023992      0.011906     -0.034547
Pd     11.23515      9.24398      6.44562         0.037416     -0.024407     -0.007184
Pd      9.90247     11.56159      6.39697         0.019232     -0.032341     -0.023814
Ir     11.35078      9.08865     13.37730        -0.004169      0.027950     -0.042261
Ir     13.07221      9.48023     10.39919         0.003626      0.010787     -0.007891
Ir     10.53219     12.36740     12.70296        -0.003315     -0.027370      0.008705
Ir      7.12847     10.97233      9.51328         0.048397      0.009264     -0.014722
Ir      8.38080     12.45144      8.18873         0.070687      0.015377     -0.020388
Ir      8.06719      9.29441     11.11742        -0.016736      0.016384     -0.009884
