152
# total energy = -1024.43949546 eVH     10.35389      5.87395      7.64558         0.471718      0.028198      0.733056
H     10.62451     15.10445      7.64558         0.064463     -0.201776      0.630538
H     10.62451      5.87395     13.33282         0.096275      0.153590     -0.576125
H     10.35389     15.10445     13.33282        -0.492495     -0.028052     -0.750747
H      7.64558     10.35389      5.87395         0.347214      0.028159      0.160277
H      7.64558     10.62451     15.10445         0.936554     -0.244384      0.051279
H     13.33282     10.62451      5.87395        -0.803420     -0.145068      0.150495
H     13.33282     10.35389     15.10445        -0.900837     -0.435412      0.209130
H      5.87395      7.64558     10.35389         0.161421      0.725549     -0.325265
H     15.10445      7.64558     10.62451        -0.140619      0.380847     -0.016871
H      5.87395     13.33282     10.62451         0.156795     -0.514072     -0.103156
H     15.10445     13.33282     10.35389        -0.093125     -1.187287      0.102608
H      5.87395     10.35389      7.64558         0.137219      0.181743      0.518458
H     15.10445     10.62451      7.64558         0.006538      0.101171      1.029934
H      5.87395     10.62451     13.33282         0.072333     -0.040645     -0.462296
H     15.10445     10.35389     13.33282        -0.181599     -0.151959     -0.433477
H     10.35389      7.64558      5.87395         0.089674      1.017339      0.228476
H     10.62451      7.64558     15.10445         0.000538      0.269715     -0.159560
H     10.62451     13.33282      5.87395        -0.086730     -0.383775      0.320228
H     10.35389     13.33282     15.10445        -0.443082     -0.577451      0.003148
H      7.64558      5.87395     10.35389         0.533942      0.088468     -0.115262
H      7.64558     15.10445     10.62451         0.944500     -0.212501     -0.196235
H     13.33282      5.87395     10.62451        -0.591817      0.090000     -0.067332
H     13.33282     15.10445     10.35389        -0.584041     -0.063289      0.244013
H     12.45634     12.45634     19.01126         0.236826      0.277188     -0.237470
H     19.01126     19.01126     19.01126        -0.248871     -0.249218     -0.242324
H     19.01126     12.45634     12.45634        -0.267200      0.264780      0.219590
H     12.45634     19.01126     12.45634         0.237235     -0.267105      0.240113
C     10.35284      5.61067      6.59456        -0.225400     -0.682444      0.100058
C     10.62556     15.36773      6.59456        -0.049921      0.376232     -0.857275
C     10.62556      5.61067     14.38384        -0.005096     -0.054129      0.703994
C     10.35284     15.36773     14.38384         0.200529      0.697315      0.165045
C      6.59456     10.35284      5.61067        -0.352160     -0.015220     -0.310180
C      6.59456     10.62556     15.36773        -1.097125      0.256677      0.280830
C     14.38384     10.62556      5.61067         0.429941      0.383093     -0.685068
C     14.38384     10.35284     15.36773         1.078646      0.035388      0.231516
C      5.61067      6.59456     10.35284        -0.428423     -0.369046      0.361198
C     15.36773      6.59456     10.62556         0.188050     -0.492332      0.012076
C      5.61067     14.38384     10.62556        -0.202320      0.566615     -0.003350
C     15.36773     14.38384     10.35284         0.327219      0.036046     -0.120194
C      5.61067     10.35284      6.59456        -0.332997     -0.092274     -1.003010
C     15.36773     10.62556      6.59456         0.910705     -0.346952     -0.948806
C      5.61067     10.62556     14.38384        -0.425227      0.028471      0.298349
C     15.36773     10.35284     14.38384         0.650813     -0.097999      1.062657
C     10.35284      6.59456      5.61067        -0.243449     -0.579662     -0.939575
C     10.62556      6.59456     15.36773         0.060312     -0.260549      0.045078
C     10.62556     14.38384      5.61067         0.057941      1.204725     -0.418400
C     10.35284     14.38384     15.36773         0.280967      0.167036      0.716813
C      6.59456      5.61067     10.35284        -0.181164     -0.730679      0.159240
C      6.59456     15.36773     10.62556        -1.238734      0.245778      0.174872
C     14.38384      5.61067     10.62556         1.074796     -0.298197      0.038438
C     14.38384     15.36773     10.35284        -0.467496      0.796026     -0.406283
C     10.40319      3.19606      7.29314        -0.034374      0.891988     -0.420943
C     10.35913      4.25547      6.23373         0.055343     -0.513567      0.546515
C      0.08601      7.29314      7.29314        -0.021563     -0.403554     -0.348579
C      0.13007      6.23373      6.23373        -0.023624      0.016078      0.099372
C      0.08601      3.19606      3.19606         0.011414      1.277805      0.192657
C      0.13007      4.25547      4.25547        -0.046602     -0.222803     -0.196950
C     10.40319      7.29314      3.19606        -0.014144     -1.053581      0.373615
C     10.35913      6.23373      4.25547         0.038688      0.478713     -0.676302
C      7.29314     10.40319      3.19606        -0.312112      0.030501      0.730335
C      6.23373     10.35913      4.25547         0.145253      0.066351     -0.105064
C      7.29314      0.08601      7.29314        -0.660790     -0.018412     -0.273192
C      6.23373      0.13007      6.23373         0.381198     -0.077028      0.550827
C      3.19606      0.08601      3.19606         1.013320     -0.004108      0.260021
C      4.25547      0.13007      4.25547        -0.168481     -0.034500     -0.537339
C      3.19606     10.40319      7.29314         0.362727     -0.008991     -0.933216
C      4.25547     10.35913      6.23373        -0.280767      0.089254      0.236920
C      3.19606      7.29314     10.40319         0.521842     -1.346665     -0.037220
C      4.25547      6.23373     10.35913        -0.553090      0.734743      0.112004
C      7.29314      7.29314      0.08601        -0.390521     -0.233449      0.001792
C      6.23373      6.23373      0.13007         0.156115      0.147873     -0.002969
C      3.19606      3.19606      0.08601         0.262656      0.245762     -0.017260
C      4.25547      4.25547      0.13007        -0.123462     -0.054712      0.005970
C      7.29314      3.19606     10.40319        -0.395480      0.631010      0.007769
C      6.23373      4.25547     10.35913         1.079277     -0.130043      0.056467
O     10.43466      3.58206      8.50569        -0.024301      0.040976      0.443714
O     10.54374     17.39634      8.50569        -0.006502     -0.113376      0.464140
O     10.54374      3.58206     12.47271         0.039888     -0.108583     -0.127374
O     10.43466     17.39634     12.47271        -0.058686     -0.044899     -0.477031
O      8.50569     10.43466      3.58206         0.286271     -0.030279     -0.039226
O      8.50569     10.54374     17.39634         0.720951      0.027250     -0.204104
O     12.47271     10.54374      3.58206        -0.790959     -0.037179      0.147889
O     12.47271     10.43466     17.39634        -0.288787     -0.029370      0.030354
O      3.58206      8.50569     10.43466         0.160852      1.108730     -0.032942
O     17.39634      8.50569     10.54374        -0.099448      0.437106      0.058793
O      3.58206     12.47271     10.54374         0.068027     -0.398165      0.035716
O     17.39634     12.47271     10.43466        -0.158656     -0.677028     -0.009462
O      3.58206     10.43466      8.50569         0.068966     -0.067880      0.798452
O     17.39634     10.54374      8.50569        -0.061711      0.045067      0.334264
O      3.58206     10.54374     12.47271        -0.012408      0.036816     -0.243328
O     17.39634     10.43466     12.47271        -0.257257     -0.001095     -0.720409
O     10.43466      8.50569      3.58206         0.118683      0.833311      0.190996
O     10.54374      8.50569     17.39634         0.032069      0.604351     -0.144545
O     10.54374     12.47271      3.58206         0.007662     -1.010929      0.174229
O     10.43466     12.47271     17.39634        -0.041946     -0.937534     -0.210319
O      8.50569      3.58206     10.43466         0.563856      0.127822     -0.015601
O      8.50569     17.39634     10.54374         0.506372     -0.194590     -0.009791
O     12.47271      3.58206     10.54374        -0.477621      0.161617      0.059187
O     12.47271     17.39634     10.43466        -0.409003      0.030264     -0.007163
O     11.90042     11.90042     19.56718        -0.268395     -0.326461      0.257740
O     19.56718     19.56718     19.56718         0.278339      0.292547      0.283581
O     19.56718     11.90042     11.90042         0.301621     -0.300480     -0.202583
O     11.90042     19.56718     11.90042        -0.264693      0.285301     -0.249279
O      9.45224      1.03696      9.45224        -0.079990      0.047879     -0.059117
O      1.03696      9.45224      9.45224         0.042928     -0.152483     -0.114318
O      1.03696      1.03696      1.03696         0.025873      0.119626      0.195527
O      9.45224      9.45224      1.03696        -0.069003     -0.087453      0.117358
Zr     10.48920      2.52580     10.48920        -0.052171     -0.123862     -0.170768
Zr     10.48920     18.45260     10.48920         0.009041      0.214820     -0.024028
Zr     10.48920     10.48920      2.52580        -0.168646     -0.195866     -0.511107
Zr     10.48920     10.48920     18.45260         0.003653     -0.014815      0.434313
Zr      2.52580     10.48920     10.48920        -0.367746      0.302483      0.174337
Zr     18.45260     10.48920     10.48920         0.203528      0.063666     -0.204175
Pd      8.29695      9.67299     13.25049         0.009783     -0.007319      0.006207
Pd     10.48533      9.44054     10.18984         0.017397     -0.000518      0.003986
Pd     12.99693      8.78338     12.46816         0.012267      0.006981      0.015015
Pd     10.29749     10.80568     15.05730         0.001549      0.009468      0.021925
Pd     12.79761     11.36605     13.58438        -0.013479     -0.015942      0.017144
Pd     14.85270     10.58763     11.36223        -0.002918     -0.008086      0.005471
Pd      6.89240      7.48116     12.29563        -0.003532     -0.004533      0.004280
Pd      9.20464      7.19410      9.44922        -0.004026     -0.016086     -0.000313
Pd      9.58400      7.54132     12.20195         0.010456     -0.000803      0.019637
Pd     11.75527      7.07780     10.79789        -0.009204     -0.006202     -0.006289
Pd     11.62450      7.82254      8.25855        -0.006185      0.007064      0.004428
Pd      7.17231     11.67646     11.51674         0.007700     -0.014421      0.002052
Pd      9.28609     14.31431      9.25059        -0.001344     -0.004531     -0.003551
Pd      8.12902     12.29354     14.00479        -0.007744      0.020390      0.021853
Pd     14.23936     14.17409      8.34937        -0.007400     -0.004812      0.019226
Pd     11.74291     13.28615      8.79448        -0.013888     -0.010286      0.000972
Pd     14.11353     11.59969      9.01590         0.002019      0.007212     -0.017389
Pd      8.70377     13.98940     11.99867        -0.015513     -0.017278     -0.001466
Pd     12.22584     14.00609     13.94160        -0.018975      0.011703     -0.007494
Pd     11.40889     14.14009     11.29079        -0.000220      0.001214     -0.002392
Pd     14.00289     13.28083     12.09695         0.015168     -0.018621     -0.012749
Pd     12.27127     11.50552     10.91203        -0.010814     -0.027918     -0.001220
Pd     13.02818     12.58948      6.59757        -0.020011      0.009795      0.003349
Pd     13.96430      8.83401      7.57739        -0.010328      0.004216      0.006055
Pd      6.96127      8.45641      8.36787         0.019058     -0.012121      0.026848
Pd      5.55584     10.01886     10.06229         0.002370      0.002257     -0.001960
Pd      9.39708      9.45312      7.43946        -0.016067      0.003065      0.013223
Pd      8.47032      6.97164      6.84921         0.008982     -0.015074      0.016377
Pd      9.67304     11.94755     10.51896        -0.011126      0.003248      0.001527
Pd     11.79640     10.60693      8.05674        -0.001131     -0.001460      0.027204
Pd     11.79382      8.92776      5.85332        -0.000918      0.004813     -0.008387
Pd     10.62996     11.33806      5.73518        -0.010416     -0.007967     -0.003852
Ir     10.74520      9.84816     12.69470        -0.021333      0.001041      0.002138
Ir     13.14313      9.24107      9.94967        -0.013702     -0.009549     -0.003539
Ir     10.48450     12.30273     12.89540        -0.009388      0.004325     -0.034499
Ir      7.76859     10.96109      9.05836        -0.019895      0.001435     -0.008096
Ir      9.57904     12.05366      7.95772        -0.000560      0.000098      0.013751
Ir      8.00562      9.16710     10.72915        -0.009919     -0.009437     -0.001864
