152
# total energy = -1022.82117347 eVH     10.35389      5.87395      7.64558         0.476725      0.032099      0.911568
H     10.62451     15.10445      7.64558        -0.043450      0.038178      0.764722
H     10.62451      5.87395     13.33282         0.143051      0.115689     -0.603993
H     10.35389     15.10445     13.33282        -0.268440     -0.077055     -0.567209
H      7.64558     10.35389      5.87395         0.333964     -0.037594      0.191252
H      7.64558     10.62451     15.10445         0.615616     -0.186637     -0.142052
H     13.33282     10.62451      5.87395        -0.861223     -0.322222      0.166432
H     13.33282     10.35389     15.10445        -0.468175     -0.091485     -0.061836
H      5.87395      7.64558     10.35389         0.124209      1.132653     -0.142821
H     15.10445      7.64558     10.62451        -0.169918      0.402977     -0.085734
H      5.87395     13.33282     10.62451         0.143026     -0.407373     -0.071672
H     15.10445     13.33282     10.35389        -0.077327     -0.967723     -0.199211
H      5.87395     10.35389      7.64558         0.129360      0.038269      0.480562
H     15.10445     10.62451      7.64558         0.131361     -0.218204      0.803385
H      5.87395     10.62451     13.33282         0.270223     -0.028264     -0.395558
H     15.10445     10.35389     13.33282        -0.143933      0.012005     -0.622996
H     10.35389      7.64558      5.87395         0.068104      0.835575      0.120658
H     10.62451      7.64558     15.10445         0.027183      0.562747     -0.146728
H     10.62451     13.33282      5.87395         0.071278     -0.604337      0.182944
H     10.35389     13.33282     15.10445        -0.250103     -0.888436     -0.109036
H      7.64558      5.87395     10.35389         0.526941      0.037650     -0.137842
H      7.64558     15.10445     10.62451         0.913191     -0.210546      0.297338
H     13.33282      5.87395     10.62451        -0.435718      0.187413     -0.058325
H     13.33282     15.10445     10.35389        -0.998436     -0.099279      0.246805
H     12.45634     12.45634     19.01126         0.267247      0.257594     -0.224238
H     19.01126     19.01126     19.01126        -0.247701     -0.234960     -0.262454
H     19.01126     12.45634     12.45634        -0.241656      0.270192      0.238986
H     12.45634     19.01126     12.45634         0.210881     -0.283307      0.252858
C     10.35284      5.61067      6.59456        -0.131744     -0.426334     -0.420862
C     10.62556     15.36773      6.59456         0.020627      0.346506     -1.146634
C     10.62556      5.61067     14.38384        -0.025798     -0.223122      0.722483
C     10.35284     15.36773     14.38384         0.189587      0.771755      0.138181
C      6.59456     10.35284      5.61067        -0.422191     -0.041234     -0.183436
C      6.59456     10.62556     15.36773        -0.785489      0.149105      0.350927
C     14.38384     10.62556      5.61067         0.641641      0.281197     -0.364529
C     14.38384     10.35284     15.36773         0.738301     -0.123608      0.428498
C      5.61067      6.59456     10.35284        -0.427569     -0.771145      0.271352
C     15.36773      6.59456     10.62556         0.197212     -0.470581      0.045532
C      5.61067     14.38384     10.62556        -0.255254      0.380148     -0.023048
C     15.36773     14.38384     10.35284         0.403003      0.141452      0.188838
C      5.61067     10.35284      6.59456        -0.308089     -0.012094     -0.889019
C     15.36773     10.62556      6.59456         0.567189     -0.147912     -1.233424
C      5.61067     10.62556     14.38384        -0.464221      0.007710      0.905550
C     15.36773     10.35284     14.38384         0.530316     -0.174977      1.247264
C     10.35284      6.59456      5.61067        -0.037241     -0.911102     -0.675511
C     10.62556      6.59456     15.36773         0.043965     -0.668498      0.300324
C     10.62556     14.38384      5.61067         0.042400      1.258726     -0.691572
C     10.35284     14.38384     15.36773         0.091834      0.594507      0.665812
C      6.59456      5.61067     10.35284        -0.226129     -0.896914      0.127803
C      6.59456     15.36773     10.62556        -1.729857      0.495285      0.043490
C     14.38384      5.61067     10.62556         0.579703     -0.223852     -0.007445
C     14.38384     15.36773     10.35284         0.163474      0.555945     -0.240221
C     10.40319      3.19606      7.29314         0.016595      0.918661     -0.253156
C     10.35913      4.25547      6.23373        -0.052330     -0.363201      0.622397
C      0.08601      7.29314      7.29314        -0.009023     -0.236669     -0.472019
C      0.13007      6.23373      6.23373         0.002271      0.117121      0.207420
C      0.08601      3.19606      3.19606        -0.016683      0.646269      0.179305
C      0.13007      4.25547      4.25547        -0.090940     -0.199408     -0.169983
C     10.40319      7.29314      3.19606        -0.000894     -0.692690      0.529581
C     10.35913      6.23373      4.25547        -0.004405      0.523920     -0.385963
C      7.29314     10.40319      3.19606        -0.346753      0.023315      0.849357
C      6.23373     10.35913      4.25547         0.211877      0.015057     -0.143804
C      7.29314      0.08601      7.29314        -0.308460     -0.046489     -0.268769
C      6.23373      0.13007      6.23373         0.265838     -0.059333      0.292960
C      3.19606      0.08601      3.19606         0.434292     -0.052719      1.300449
C      4.25547      0.13007      4.25547        -0.116723     -0.028343     -0.461994
C      3.19606     10.40319      7.29314         0.711755      0.015429     -0.263948
C      4.25547     10.35913      6.23373        -0.137556      0.034053      0.109420
C      3.19606      7.29314     10.40319         0.603454     -1.263751      0.026449
C      4.25547      6.23373     10.35913        -0.718246      0.837132      0.047592
C      7.29314      7.29314      0.08601        -0.660743     -0.169051     -0.022870
C      6.23373      6.23373      0.13007         0.171830      0.270285     -0.009766
C      3.19606      3.19606      0.08601         0.241100      0.250374     -0.019810
C      4.25547      4.25547      0.13007        -0.052398     -0.036295      0.012512
C      7.29314      3.19606     10.40319        -0.372681      0.786300      0.016041
C      6.23373      4.25547     10.35913         0.874555     -0.159784      0.011563
O     10.43466      3.58206      8.50569        -0.050177      0.030004      0.316921
O     10.54374     17.39634      8.50569        -0.024561     -0.182925      0.605320
O     10.54374      3.58206     12.47271         0.055243      0.061689     -0.322732
O     10.43466     17.39634     12.47271        -0.024222     -0.124798     -0.581897
O      8.50569     10.43466      3.58206         0.386030     -0.023690     -0.010846
O      8.50569     10.54374     17.39634         0.470002      0.053597     -0.142998
O     12.47271     10.54374      3.58206        -0.283061      0.049759     -0.077865
O     12.47271     10.43466     17.39634        -0.856546      0.021109     -0.223803
O      3.58206      8.50569     10.43466         0.040739      0.916171      0.039630
O     17.39634      8.50569     10.54374        -0.038232      0.336663      0.078023
O      3.58206     12.47271     10.54374         0.064026     -0.420260      0.063800
O     17.39634     12.47271     10.43466        -0.169886     -0.772676      0.018704
O      3.58206     10.43466      8.50569        -0.056960     -0.066510      0.225034
O     17.39634     10.54374      8.50569        -0.136331      0.042274      0.457633
O      3.58206     10.54374     12.47271        -0.019521     -0.052253     -0.890400
O     17.39634     10.43466     12.47271        -0.197499      0.040993     -0.761352
O     10.43466      8.50569      3.58206         0.044642      0.684093      0.192083
O     10.54374      8.50569     17.39634         0.053856      0.431385     -0.078245
O     10.54374     12.47271      3.58206        -0.009044     -0.729607      0.228109
O     10.43466     12.47271     17.39634         0.050220     -0.857070     -0.276289
O      8.50569      3.58206     10.43466         0.493584      0.077674     -0.038671
O      8.50569     17.39634     10.54374         0.657495     -0.253596     -0.061423
O     12.47271      3.58206     10.54374        -0.486730      0.163530      0.039783
O     12.47271     17.39634     10.43466        -0.528498     -0.039353     -0.030253
O     11.90042     11.90042     19.56718        -0.304662     -0.312223      0.263616
O     19.56718     19.56718     19.56718         0.287301      0.271427      0.320989
O     19.56718     11.90042     11.90042         0.280568     -0.330492     -0.244690
O     11.90042     19.56718     11.90042        -0.228275      0.290690     -0.240814
O      9.45224      1.03696      9.45224        -0.074333      0.048714     -0.066908
O      1.03696      9.45224      9.45224         0.056092     -0.145467     -0.056584
O      1.03696      1.03696      1.03696         0.043828      0.032368      0.187353
O      9.45224      9.45224      1.03696        -0.039330     -0.092549      0.122089
Zr     10.48920      2.52580     10.48920        -0.007873     -0.073885     -0.022068
Zr     10.48920     18.45260     10.48920         0.059031      0.308596     -0.071810
Zr     10.48920     10.48920      2.52580        -0.103085      0.013353     -0.373030
Zr     10.48920     10.48920     18.45260        -0.137208     -0.159945      0.328404
Zr      2.52580     10.48920     10.48920        -0.346401      0.317987     -0.465965
Zr     18.45260     10.48920     10.48920         0.238144      0.039862     -0.260735
Pd      9.04328     10.26790     13.33959        -0.014956     -0.006617      0.002178
Pd     10.58950      9.73066     10.99540        -0.002094     -0.013141     -0.066084
Pd     13.75845      8.55347     12.68160         0.018778      0.000711     -0.012770
Pd     11.00059     11.08057     15.03226        -0.002317     -0.028465     -0.033466
Pd     12.86502     11.19710     13.03973         0.021773      0.013327      0.007478
Pd     14.97415     10.93416     11.34205         0.010305      0.017239     -0.006233
Pd      6.66022      7.43726     12.33793        -0.003163      0.023354      0.002792
Pd      9.22180      7.26580     10.13804         0.004563      0.013294     -0.023551
Pd      9.27048      7.61683     12.80723         0.004945     -0.007179     -0.024488
Pd     11.69640      7.29201     11.46716         0.004000      0.003366     -0.013382
Pd     11.38069      7.99807      8.86070         0.043744     -0.007448      0.000205
Pd      7.26017     11.84043     11.96438         0.006330     -0.002849     -0.022162
Pd      8.90655     14.67740      9.33908         0.033780      0.025551      0.021061
Pd      8.41883     12.66522     14.32833         0.004728     -0.011690     -0.022618
Pd     13.51975     14.08209      8.56364         0.090657      0.034336     -0.047740
Pd     10.98071     13.33392      8.52277         0.086352      0.039370      0.040306
Pd     14.08197     11.51257      8.92374         0.008353      0.049937     -0.005631
Pd      8.62604     14.11181     12.10343         0.019346     -0.020430      0.012536
Pd     12.24483     13.75209     14.02690        -0.018414     -0.020150     -0.007827
Pd     11.16817     14.42932     11.15160         0.019918     -0.020100      0.051447
Pd     14.05952     13.55945     12.17203        -0.011950      0.005768     -0.003425
Pd     12.31437     12.14117     10.68109        -0.004960     -0.020122      0.013623
Pd     12.65410     12.31784      6.71762         0.019181      0.048340     -0.015425
Pd     13.64158      8.93433      7.91622         0.048609     -0.000564     -0.018603
Pd      6.85887      8.46795      8.86106         0.018902      0.013834     -0.009677
Pd      5.52834      9.93314     11.27040         0.010389      0.039364     -0.054117
Pd      9.13554      9.75429      8.30305         0.027642     -0.028026     -0.012946
Pd      8.82268      7.24154      7.48069        -0.014862     -0.012564     -0.043320
Pd      9.52665     12.08405     10.43205         0.023847      0.002769      0.014399
Pd     11.52323     10.70902      8.57985         0.017071      0.018702     -0.018728
Pd     11.23131      9.25269      6.43867         0.034869     -0.035174     -0.028699
Pd      9.89036     11.56364      6.38129         0.032000     -0.029199     -0.032847
Ir     11.35779      9.11397     13.36719        -0.019032      0.017588     -0.004001
Ir     13.07393      9.47596     10.38671        -0.007268     -0.012353      0.023542
Ir     10.54030     12.35987     12.71535        -0.020489      0.004426      0.033387
Ir      7.14055     10.98708      9.51175         0.034326      0.018290     -0.009578
Ir      8.40831     12.46366      8.19330         0.023275      0.007380     -0.004604
Ir      8.06969      9.30956     11.12187         0.005777     -0.002276      0.011726
