152
# total energy = -1024.29455032 eVH     10.35389      5.87395      7.64558         0.470537      0.044755      0.740688
H     10.62451     15.10445      7.64558         0.010319     -0.185156      0.579730
H     10.62451      5.87395     13.33282         0.113498      0.157848     -0.593337
H     10.35389     15.10445     13.33282        -0.410280     -0.055469     -0.761778
H      7.64558     10.35389      5.87395         0.339539      0.006726      0.175548
H      7.64558     10.62451     15.10445         0.859398     -0.346033     -0.030648
H     13.33282     10.62451      5.87395        -0.761148     -0.037298      0.155379
H     13.33282     10.35389     15.10445        -0.875561     -0.383586      0.189680
H      5.87395      7.64558     10.35389         0.211443      0.594173     -0.036970
H     15.10445      7.64558     10.62451        -0.142057      0.401614     -0.041640
H      5.87395     13.33282     10.62451         0.164253     -0.516150     -0.107576
H     15.10445     13.33282     10.35389        -0.094331     -1.157174     -0.005567
H      5.87395     10.35389      7.64558         0.136482      0.129269      0.497380
H     15.10445     10.62451      7.64558         0.050055      0.076623      1.036950
H      5.87395     10.62451     13.33282         0.112371     -0.038756     -0.420939
H     15.10445     10.35389     13.33282        -0.110431     -0.160488     -0.593678
H     10.35389      7.64558      5.87395         0.031669      0.968789      0.250376
H     10.62451      7.64558     15.10445         0.012286      0.279981     -0.177903
H     10.62451     13.33282      5.87395        -0.086959     -0.443696      0.322942
H     10.35389     13.33282     15.10445        -0.440512     -0.650137     -0.027473
H      7.64558      5.87395     10.35389         0.478832      0.120611      0.044379
H      7.64558     15.10445     10.62451         0.883885     -0.260251     -0.019379
H     13.33282      5.87395     10.62451        -0.568285      0.140498     -0.078191
H     13.33282     15.10445     10.35389        -0.643886     -0.059229      0.217909
H     12.45634     12.45634     19.01126         0.239011      0.274909     -0.235439
H     19.01126     19.01126     19.01126        -0.252693     -0.246439     -0.242458
H     19.01126     12.45634     12.45634        -0.261409      0.268865      0.221893
H     12.45634     19.01126     12.45634         0.230992     -0.264323      0.242814
C     10.35284      5.61067      6.59456        -0.190466     -0.622213      0.059590
C     10.62556     15.36773      6.59456        -0.021058      0.379518     -0.751029
C     10.62556      5.61067     14.38384        -0.017714     -0.071757      0.716213
C     10.35284     15.36773     14.38384         0.150120      0.723717      0.177776
C      6.59456     10.35284      5.61067        -0.375282     -0.025591     -0.268163
C      6.59456     10.62556     15.36773        -1.012224      0.348746      0.387503
C     14.38384     10.62556      5.61067         0.419654      0.311520     -0.604553
C     14.38384     10.35284     15.36773         0.950264     -0.009274      0.355436
C      5.61067      6.59456     10.35284        -0.388234     -0.473300      0.236857
C     15.36773      6.59456     10.62556         0.197427     -0.528052      0.028920
C      5.61067     14.38384     10.62556        -0.178787      0.567930      0.012132
C     15.36773     14.38384     10.35284         0.349976      0.019236     -0.124157
C      5.61067     10.35284      6.59456        -0.308220     -0.062878     -0.915170
C     15.36773     10.62556      6.59456         0.766298     -0.292698     -1.062262
C      5.61067     10.62556     14.38384        -0.482677      0.006023      0.296216
C     15.36773     10.35284     14.38384         0.666781     -0.106756      1.121806
C     10.35284      6.59456      5.61067        -0.247975     -0.627248     -0.847458
C     10.62556      6.59456     15.36773         0.050734     -0.292875      0.080790
C     10.62556     14.38384      5.61067         0.112463      1.233204     -0.442220
C     10.35284     14.38384     15.36773         0.214348      0.117742      0.697819
C      6.59456      5.61067     10.35284        -0.367569     -0.728966      0.068437
C      6.59456     15.36773     10.62556        -1.215899      0.281178      0.074151
C     14.38384      5.61067     10.62556         0.896947     -0.277337      0.025951
C     14.38384     15.36773     10.35284        -0.498662      0.748891     -0.324925
C     10.40319      3.19606      7.29314        -0.016318      0.827770     -0.392499
C     10.35913      4.25547      6.23373         0.041399     -0.456592      0.578458
C      0.08601      7.29314      7.29314        -0.017917     -0.491616     -0.352502
C      0.13007      6.23373      6.23373        -0.019045      0.017096      0.094757
C      0.08601      3.19606      3.19606        -0.001634      1.214859      0.185303
C      0.13007      4.25547      4.25547        -0.051502     -0.218368     -0.226307
C     10.40319      7.29314      3.19606        -0.002712     -1.042896      0.395806
C     10.35913      6.23373      4.25547         0.024389      0.467558     -0.651821
C      7.29314     10.40319      3.19606        -0.377186      0.043354      0.815397
C      6.23373     10.35913      4.25547         0.226903      0.088869     -0.116895
C      7.29314      0.08601      7.29314        -0.591558     -0.023539     -0.263440
C      6.23373      0.13007      6.23373         0.382855     -0.064353      0.446706
C      3.19606      0.08601      3.19606         0.891817     -0.014938      0.347396
C      4.25547      0.13007      4.25547        -0.106162     -0.055399     -0.494356
C      3.19606     10.40319      7.29314         0.473352     -0.000985     -0.766161
C      4.25547     10.35913      6.23373        -0.254560      0.106269      0.247043
C      3.19606      7.29314     10.40319         0.488321     -1.353651     -0.042813
C      4.25547      6.23373     10.35913        -0.376631      0.809846      0.043846
C      7.29314      7.29314      0.08601        -0.418970     -0.229193     -0.009550
C      6.23373      6.23373      0.13007         0.163756      0.144668     -0.015481
C      3.19606      3.19606      0.08601         0.247360      0.258049     -0.020184
C      4.25547      4.25547      0.13007        -0.099446     -0.049666      0.017918
C      7.29314      3.19606     10.40319        -0.361141      0.684452      0.012598
C      6.23373      4.25547     10.35913         1.102651      0.047377      0.004855
O     10.43466      3.58206      8.50569        -0.029883      0.058526      0.450682
O     10.54374     17.39634      8.50569        -0.004342     -0.086767      0.435393
O     10.54374      3.58206     12.47271         0.044597     -0.090237     -0.143339
O     10.43466     17.39634     12.47271        -0.056071     -0.047224     -0.476908
O      8.50569     10.43466      3.58206         0.316289     -0.031749     -0.045538
O      8.50569     10.54374     17.39634         0.682599      0.027313     -0.168243
O     12.47271     10.54374      3.58206        -0.731752     -0.034548      0.143497
O     12.47271     10.43466     17.39634        -0.441937     -0.027108     -0.043730
O      3.58206      8.50569     10.43466         0.139957      1.093215     -0.000409
O     17.39634      8.50569     10.54374        -0.080703      0.408942      0.065535
O      3.58206     12.47271     10.54374         0.069186     -0.413292      0.040615
O     17.39634     12.47271     10.43466        -0.159280     -0.700051      0.004673
O      3.58206     10.43466      8.50569         0.026093     -0.073409      0.651877
O     17.39634     10.54374      8.50569        -0.065587      0.043726      0.332601
O      3.58206     10.54374     12.47271        -0.006826      0.024065     -0.306120
O     17.39634     10.43466     12.47271        -0.241676      0.019476     -0.747580
O     10.43466      8.50569      3.58206         0.113281      0.845151      0.200544
O     10.54374      8.50569     17.39634         0.035401      0.674442     -0.161599
O     10.54374     12.47271      3.58206        -0.016136     -1.015445      0.212192
O     10.43466     12.47271     17.39634        -0.029216     -0.883991     -0.192555
O      8.50569      3.58206     10.43466         0.521108      0.101597     -0.019550
O      8.50569     17.39634     10.54374         0.536585     -0.210819     -0.016006
O     12.47271      3.58206     10.54374        -0.467211      0.155524      0.056445
O     12.47271     17.39634     10.43466        -0.376974      0.045740     -0.009555
O     11.90042     11.90042     19.56718        -0.275958     -0.325499      0.261909
O     19.56718     19.56718     19.56718         0.281789      0.283630      0.287342
O     19.56718     11.90042     11.90042         0.290031     -0.304801     -0.198896
O     11.90042     19.56718     11.90042        -0.269758      0.278846     -0.246662
O      9.45224      1.03696      9.45224        -0.086893      0.055316     -0.053431
O      1.03696      9.45224      9.45224         0.036118     -0.174785     -0.108664
O      1.03696      1.03696      1.03696         0.003163      0.110510      0.216473
O      9.45224      9.45224      1.03696        -0.058005     -0.086786      0.136848
Zr     10.48920      2.52580     10.48920        -0.021422     -0.116713     -0.173748
Zr     10.48920     18.45260     10.48920         0.020618      0.236517     -0.029518
Zr     10.48920     10.48920      2.52580        -0.086935     -0.169271     -0.549819
Zr     10.48920     10.48920     18.45260        -0.032845      0.042382      0.462213
Zr      2.52580     10.48920     10.48920        -0.366736      0.321159      0.098100
Zr     18.45260     10.48920     10.48920         0.201264      0.037465     -0.251910
Pd      8.57764      9.91418     13.22421        -0.030991      0.002508      0.042350
Pd     10.52995      9.50945     10.28196         0.059153     -0.026525     -0.055870
Pd     13.37248      8.73523     12.50487         0.001363     -0.008739     -0.035795
Pd     10.43677     10.63525     15.09675         0.024912      0.020425     -0.037272
Pd     12.98908     11.35528     13.46730        -0.055558      0.004138      0.026895
Pd     14.96231     10.71700     11.30027        -0.051549     -0.012240      0.002329
Pd      6.82899      7.87248     12.54613        -0.008897     -0.024034     -0.061067
Pd      9.23363      7.22355      9.58096        -0.013373      0.022178     -0.026372
Pd      9.49180      7.54317     12.30891         0.041841      0.008052      0.006520
Pd     11.75438      7.21212     10.97122        -0.021656     -0.051755     -0.011577
Pd     11.59676      7.85970      8.35622         0.023099      0.021391      0.030995
Pd      7.16715     11.73622     11.63200         0.005053      0.007528     -0.018397
Pd      9.20789     14.35298      9.37390         0.026337     -0.003470     -0.012770
Pd      8.17503     12.40436     14.21608        -0.007257     -0.018185     -0.037140
Pd     14.13612     14.19601      8.35349         0.048217      0.025242     -0.018810
Pd     11.64846     13.33968      8.83064         0.039881      0.045440      0.016676
Pd     14.08838     11.61907      8.95054        -0.005743      0.029382      0.001530
Pd      8.75894     13.92405     12.13452        -0.025348      0.017631     -0.012823
Pd     12.20286     13.91376     13.98433        -0.001246     -0.008425     -0.009788
Pd     11.39379     14.09184     11.37285         0.020470      0.021502      0.001057
Pd     14.04681     13.43249     12.11825        -0.032863     -0.036065     -0.018655
Pd     12.33349     11.60174     10.90148         0.002502     -0.008725      0.007612
Pd     12.87721     12.62078      6.60825         0.023779     -0.002632      0.016809
Pd     13.89605      8.88934      7.59438         0.027106     -0.011180      0.006492
Pd      6.96244      8.45651      8.50953         0.001226     -0.003874     -0.020405
Pd      5.55481     10.02453     10.23328        -0.022088     -0.010623     -0.007161
Pd      9.35193      9.49118      7.58059         0.007166     -0.034429     -0.025787
Pd      8.50238      7.00969      6.96579         0.009306     -0.016822      0.020596
Pd      9.67996     11.94554     10.57092        -0.070039     -0.007891     -0.088686
Pd     11.73006     10.65365      8.11287         0.045622     -0.009462      0.021786
Pd     11.69461      8.99347      5.92060         0.034543     -0.006633      0.022705
Pd     10.46146     11.35691      5.80623        -0.015972     -0.008718     -0.055912
Ir     11.05226      9.64893     12.75139        -0.007786     -0.002884      0.036341
Ir     13.17999      9.30349     10.00261        -0.035838      0.027297     -0.043281
Ir     10.51758     12.10050     12.93908         0.040449     -0.001315      0.053438
Ir      7.68942     11.01103      9.14608         0.148136      0.118742     -0.119449
Ir      9.47628     12.12448      8.01685        -0.088871     -0.068557      0.118737
Ir      8.06292      9.24913     10.80609        -0.062307     -0.047531      0.030566
