152
# total energy = -1004.24809394 eVH     10.35389      5.87395      7.64558        -0.221206      0.242087      0.631844
H     10.62451     15.10445      7.64558        -0.250506     -0.139556      0.694345
H     10.62451      5.87395     13.33282         0.475990      0.031837     -0.967250
H     10.35389     15.10445     13.33282         0.063398     -0.193669     -0.537809
H      7.64558     10.35389      5.87395         0.423952      0.068668      0.112524
H      7.64558     10.62451     15.10445         0.779746      0.584687     -0.028483
H     13.33282     10.62451      5.87395        -0.447980     -0.036274      0.286860
H     13.33282     10.35389     15.10445        -0.704702     -0.166671     -0.012467
H      5.87395      7.64558     10.35389         0.083640      1.883109      0.207447
H     15.10445      7.64558     10.62451        -0.097601      0.524168      0.145519
H      5.87395     13.33282     10.62451         0.211602     -0.739879      0.041707
H     15.10445     13.33282     10.35389         0.232259     -1.473730     -0.363579
H      5.87395     10.35389      7.64558         0.081373      0.070157      0.598155
H     15.10445     10.62451      7.64558        -0.191876      0.834762      1.342919
H      5.87395     10.62451     13.33282        -0.061724      0.443595     -1.319272
H     15.10445     10.35389     13.33282         0.125484     -0.148852     -0.746450
H     10.35389      7.64558      5.87395         0.233611      1.382178      0.164802
H     10.62451      7.64558     15.10445         0.549010      0.821101     -0.075949
H     10.62451     13.33282      5.87395        -0.570555     -0.817431      0.179790
H     10.35389     13.33282     15.10445        -0.145996     -0.532614     -0.300147
H      7.64558      5.87395     10.35389         1.109851     -0.282506     -0.123738
H      7.64558     15.10445     10.62451         0.737665     -0.208855     -0.029112
H     13.33282      5.87395     10.62451        -0.614390      0.115280      0.627901
H     13.33282     15.10445     10.35389        -0.380904     -0.034889     -0.134025
H     12.45634     12.45634     19.01126         0.274093      0.242969     -0.234598
H     19.01126     19.01126     19.01126        -0.267475     -0.272320     -0.213877
H     19.01126     12.45634     12.45634        -0.273308      0.253179      0.233268
H     12.45634     19.01126     12.45634         0.254827     -0.281377      0.228567
C     10.35284      5.61067      6.59456        -0.154100     -0.831192     -0.598438
C     10.62556     15.36773      6.59456         0.080274      0.360087     -0.279050
C     10.62556      5.61067     14.38384        -0.081515     -0.583871      0.651835
C     10.35284     15.36773     14.38384        -0.015935      0.240524      0.539496
C      6.59456     10.35284      5.61067        -0.684218      0.090029     -0.484329
C      6.59456     10.62556     15.36773        -0.988208      0.226348      0.735945
C     14.38384     10.62556      5.61067         0.839945      0.023473     -0.927391
C     14.38384     10.35284     15.36773         0.937293     -0.095158      0.466411
C      5.61067      6.59456     10.35284        -0.861526     -1.046371     -0.459941
C     15.36773      6.59456     10.62556         0.709240      0.020951     -0.240491
C      5.61067     14.38384     10.62556        -0.209491      0.861842     -0.013808
C     15.36773     14.38384     10.35284         0.293992      1.467784     -0.042576
C      5.61067     10.35284      6.59456        -0.289213      0.009422     -0.763324
C     15.36773     10.62556      6.59456         0.386532     -0.363761     -0.915025
C      5.61067     10.62556     14.38384        -0.353604     -0.005099      1.120903
C     15.36773     10.35284     14.38384         0.344487     -0.044573      0.863713
C     10.35284      6.59456      5.61067        -0.029347     -1.034068     -0.345031
C     10.62556      6.59456     15.36773         0.055887     -0.732354      0.564524
C     10.62556     14.38384      5.61067         0.105706      0.975319     -0.428418
C     10.35284     14.38384     15.36773        -0.024960      0.815190      0.410180
C      6.59456      5.61067     10.35284        -0.706483     -1.257036      0.148150
C      6.59456     15.36773     10.62556        -0.817308      0.144991      0.094417
C     14.38384      5.61067     10.62556        -0.066485     -0.511798     -0.387058
C     14.38384     15.36773     10.35284         0.088970      0.649335     -0.073315
C     10.40319      3.19606      7.29314         0.008391      0.655002     -0.831379
C     10.35913      4.25547      6.23373         0.014578     -0.534294      0.113100
C      0.08601      7.29314      7.29314        -0.024378     -1.021029     -0.261165
C      0.13007      6.23373      6.23373        -0.050682      0.397248      0.422296
C      0.08601      3.19606      3.19606         0.040872      1.143433      0.217288
C      0.13007      4.25547      4.25547        -0.002548     -0.418840     -0.427301
C     10.40319      7.29314      3.19606        -0.009599     -0.594166      0.213177
C     10.35913      6.23373      4.25547        -0.019104      0.127950     -0.700712
C      7.29314     10.40319      3.19606        -0.417877      0.018676      0.250126
C      6.23373     10.35913      4.25547         0.207261      0.062242     -0.092888
C      7.29314      0.08601      7.29314        -1.182046     -0.079695     -0.368449
C      6.23373      0.13007      6.23373         0.651414     -0.193248      0.357198
C      3.19606      0.08601      3.19606         1.191545     -0.015828      0.292333
C      4.25547      0.13007      4.25547        -0.576670     -0.155214     -0.234222
C      3.19606     10.40319      7.29314         0.548545      0.030986     -0.256923
C      4.25547     10.35913      6.23373        -0.215199      0.071627      0.194919
C      3.19606      7.29314     10.40319         0.296911     -0.560806      0.046684
C      4.25547      6.23373     10.35913        -1.016146      0.006903      0.164856
C      7.29314      7.29314      0.08601        -0.486195     -0.433861     -0.022818
C      6.23373      6.23373      0.13007         0.475498      0.305976      0.057212
C      3.19606      3.19606      0.08601         0.655103      0.452586     -0.022997
C      4.25547      4.25547      0.13007        -0.137745     -0.781106     -0.116001
C      7.29314      3.19606     10.40319        -0.396392      0.456226      0.052279
C      6.23373      4.25547     10.35913         0.612286     -0.710150      0.196000
O     10.43466      3.58206      8.50569         0.062028      0.206560      0.699335
O     10.54374     17.39634      8.50569         0.050297     -0.032474      0.304342
O     10.54374      3.58206     12.47271         0.005314     -0.040331     -0.230728
O     10.43466     17.39634     12.47271        -0.034897     -0.104131     -0.386887
O      8.50569     10.43466      3.58206         0.566045     -0.045879      0.144022
O      8.50569     10.54374     17.39634         0.869047     -0.084268     -0.165624
O     12.47271     10.54374      3.58206        -0.888380      0.143626      0.140076
O     12.47271     10.43466     17.39634        -0.617255      0.036999     -0.179014
O      3.58206      8.50569     10.43466         0.174984      0.660631     -0.031586
O     17.39634      8.50569     10.54374        -0.137185      0.624125      0.021889
O      3.58206     12.47271     10.54374         0.101561     -0.547942      0.051896
O     17.39634     12.47271     10.43466        -0.174379     -0.560792     -0.056691
O      3.58206     10.43466      8.50569         0.087636     -0.039779      0.387996
O     17.39634     10.54374      8.50569         0.053434      0.103946      0.326316
O      3.58206     10.54374     12.47271        -0.026430      0.031101     -0.236452
O     17.39634     10.43466     12.47271        -0.115588     -0.028625     -0.425834
O     10.43466      8.50569      3.58206        -0.042227      0.639186      0.182446
O     10.54374      8.50569     17.39634        -0.092853      0.810081     -0.166163
O     10.54374     12.47271      3.58206         0.118730     -0.935687      0.176697
O     10.43466     12.47271     17.39634         0.018833     -0.498134     -0.064235
O      8.50569      3.58206     10.43466         0.576241      0.152466     -0.052196
O      8.50569     17.39634     10.54374         0.600037     -0.167884      0.013862
O     12.47271      3.58206     10.54374        -0.749282      0.127172      0.012520
O     12.47271     17.39634     10.43466        -0.505831     -0.126607     -0.031589
O     11.90042     11.90042     19.56718        -0.326127     -0.263107      0.243651
O     19.56718     19.56718     19.56718         0.299012      0.324519      0.206185
O     19.56718     11.90042     11.90042         0.345627     -0.279626     -0.252694
O     11.90042     19.56718     11.90042        -0.280966      0.351518     -0.226281
O      9.45224      1.03696      9.45224        -0.029710      0.105972     -0.130829
O      1.03696      9.45224      9.45224         0.062817     -0.022940     -0.117012
O      1.03696      1.03696      1.03696         0.063830      0.098418      0.097430
O      9.45224      9.45224      1.03696        -0.035973     -0.026760      0.090381
Zr     10.48920      2.52580     10.48920        -0.095624     -0.256227      0.187168
Zr     10.48920     18.45260     10.48920         0.020906      0.056446      0.092650
Zr     10.48920     10.48920      2.52580        -0.318590     -0.246053     -0.391286
Zr     10.48920     10.48920     18.45260         0.181762     -0.013204      0.369008
Zr      2.52580     10.48920     10.48920        -0.135134     -0.049899     -0.067452
Zr     18.45260     10.48920     10.48920         0.101187     -0.054583      0.140728
Pd     12.68556      8.24974      9.72484         0.021540      0.040859     -0.064239
Pd      6.72384      9.61892     10.48942        -0.015136      0.016475     -0.002439
Pd      6.92007     11.78250     11.93383         0.037912      0.005289     -0.021652
Pd     12.23466     13.46382      7.28506         0.013352      0.013842     -0.019169
Pd     12.06420      7.88932      7.10453         0.046554      0.026464      0.010840
Pd      8.51532      7.34252      6.94904         0.015744     -0.000831      0.004731
Pd     11.50861     11.44387      5.67627         0.007963      0.004696     -0.010010
Pd     14.46880      8.85545      7.80147        -0.028573     -0.033734      0.026465
Pd      9.85920     11.77926      7.86282         0.012861      0.044518      0.028334
Pd      7.07524      7.18427     11.97262         0.015334      0.006213      0.005397
Pd      6.45656      7.68014      8.51594         0.019878     -0.020744     -0.031422
Pd      7.34746      9.27611     13.45202         0.000059     -0.030495     -0.004289
Pd     11.38234      6.02905      9.21907         0.035638      0.028137      0.017750
Pd      9.89390      9.57045      6.33296         0.017694     -0.025759     -0.013734
Pd      9.13879     13.95229      9.29716        -0.020827     -0.013870     -0.014727
Pd     10.92239      7.21009     11.52095         0.041892     -0.059980      0.015962
Pd     10.32272      9.06475      8.97703         0.000773     -0.001919     -0.009892
Pd      9.27949     11.51123     10.45132        -0.045622     -0.014270      0.036995
Pd      8.90424      7.06657      9.63980        -0.033421      0.001824     -0.044887
Pd      9.08099      7.28313     13.63470        -0.034341      0.005677      0.006225
Pd      9.09120      9.08782     11.42999        -0.051239      0.017343      0.014138
Pd     12.31717     10.58991      8.09538        -0.016368      0.009139     -0.002206
Pd      7.02562     12.08090      9.21052         0.065848     -0.023408      0.006325
Pd      8.02614      9.82200      8.22056         0.008892     -0.012680      0.006857
Pd     14.01700      6.31575      8.48060        -0.014431      0.030398      0.015240
Pd     13.34816      8.32008     12.23427        -0.043298      0.037165      0.039433
Pd      9.18892     11.30525     13.19721        -0.033526      0.044913     -0.011623
Pd     14.07651     12.41865      8.81525        -0.027031     -0.000191      0.008421
Pd     13.15654     10.90050     12.98429         0.005807     -0.022190      0.021256
Pd     14.27386     10.27895     10.41362         0.006587      0.010754      0.015322
Pd     11.63602     10.43796     10.86626         0.076115      0.039816     -0.007571
Pd     11.54499     12.95617      9.75993         0.037921      0.001434     -0.013026
Pd     13.70328     12.89632     11.49434        -0.033084      0.025497     -0.023986
Pd     11.23633     12.70877     12.35403         0.016657     -0.012848     -0.004258
Pd     11.31235     11.49473     14.81134         0.020103      0.004505      0.002665
Pd     11.07066      9.26750     13.25017         0.015807      0.047199      0.010189
Pd      9.46043      9.57452     15.30187        -0.014049     -0.010484      0.021241
Pd      8.86207     13.74469     11.96965        -0.018913     -0.006372      0.020418
