152
# total energy = -1023.98907543 eVH     10.35389      5.87395      7.64558         0.533502      0.071996      0.789889
H     10.62451     15.10445      7.64558        -0.006277     -0.159637      0.570621
H     10.62451      5.87395     13.33282         0.140107      0.160163     -0.651124
H     10.35389     15.10445     13.33282        -0.308701     -0.060903     -0.719809
H      7.64558     10.35389      5.87395         0.315424     -0.015050      0.187564
H      7.64558     10.62451     15.10445         1.039206     -0.379073      0.000329
H     13.33282     10.62451      5.87395        -0.754559      0.000136      0.180132
H     13.33282     10.35389     15.10445        -0.800773     -0.315282      0.126816
H      5.87395      7.64558     10.35389         0.207690      0.742721     -0.067668
H     15.10445      7.64558     10.62451        -0.146856      0.399469     -0.044246
H      5.87395     13.33282     10.62451         0.179125     -0.492105     -0.079001
H     15.10445     13.33282     10.35389        -0.116167     -1.041313      0.056718
H      5.87395     10.35389      7.64558         0.149428      0.102242      0.449848
H     15.10445     10.62451      7.64558         0.068033      0.115364      1.111019
H      5.87395     10.62451     13.33282         0.105479     -0.032149     -0.375788
H     15.10445     10.35389     13.33282        -0.087636     -0.120519     -0.623566
H     10.35389      7.64558      5.87395         0.032540      0.864994      0.223424
H     10.62451      7.64558     15.10445         0.015727      0.290947     -0.174933
H     10.62451     13.33282      5.87395        -0.051074     -0.556250      0.243985
H     10.35389     13.33282     15.10445        -0.540379     -0.752911     -0.050731
H      7.64558      5.87395     10.35389         0.458404      0.116216      0.047191
H      7.64558     15.10445     10.62451         0.793009     -0.289130      0.073284
H     13.33282      5.87395     10.62451        -0.490261      0.168822     -0.065902
H     13.33282     15.10445     10.35389        -0.629902     -0.059225      0.179052
H     12.45634     12.45634     19.01126         0.241336      0.280334     -0.228872
H     19.01126     19.01126     19.01126        -0.253813     -0.238083     -0.252244
H     19.01126     12.45634     12.45634        -0.250301      0.273038      0.225609
H     12.45634     19.01126     12.45634         0.228059     -0.263337      0.242976
C     10.35284      5.61067      6.59456        -0.194480     -0.564211      0.055279
C     10.62556     15.36773      6.59456         0.017734      0.421872     -0.776667
C     10.62556      5.61067     14.38384        -0.053014     -0.107751      0.771752
C     10.35284     15.36773     14.38384         0.089631      0.715154      0.284724
C      6.59456     10.35284      5.61067        -0.382612     -0.030363     -0.235694
C      6.59456     10.62556     15.36773        -1.092493      0.432503      0.402213
C     14.38384     10.62556      5.61067         0.396626      0.285024     -0.591802
C     14.38384     10.35284     15.36773         0.976967     -0.055700      0.405624
C      5.61067      6.59456     10.35284        -0.369341     -0.492506      0.297366
C     15.36773      6.59456     10.62556         0.175048     -0.512676      0.031920
C      5.61067     14.38384     10.62556        -0.119669      0.492909     -0.003316
C     15.36773     14.38384     10.35284         0.332300     -0.107514     -0.161256
C      5.61067     10.35284      6.59456        -0.270100     -0.044177     -0.804534
C     15.36773     10.62556      6.59456         0.689905     -0.323572     -1.202618
C      5.61067     10.62556     14.38384        -0.559388     -0.021990      0.167570
C     15.36773     10.35284     14.38384         0.655935     -0.123727      1.170279
C     10.35284      6.59456      5.61067        -0.276300     -0.458951     -0.758046
C     10.62556      6.59456     15.36773         0.047919     -0.282960      0.127627
C     10.62556     14.38384      5.61067         0.148455      1.101631     -0.414970
C     10.35284     14.38384     15.36773         0.178327      0.264596      0.678094
C      6.59456      5.61067     10.35284        -0.305783     -0.789730      0.055745
C      6.59456     15.36773     10.62556        -1.314875      0.344882      0.045531
C     14.38384      5.61067     10.62556         0.716993     -0.243776      0.016165
C     14.38384     15.36773     10.35284        -0.527700      0.690454     -0.321602
C     10.40319      3.19606      7.29314         0.001469      0.879545     -0.388109
C     10.35913      4.25547      6.23373         0.036864     -0.515815      0.559808
C      0.08601      7.29314      7.29314        -0.006024     -0.456109     -0.405520
C      0.13007      6.23373      6.23373        -0.010450      0.031405      0.099946
C      0.08601      3.19606      3.19606        -0.018707      0.906445      0.182531
C      0.13007      4.25547      4.25547        -0.068509     -0.197615     -0.245292
C     10.40319      7.29314      3.19606        -0.005244     -0.916868      0.473049
C     10.35913      6.23373      4.25547         0.023492      0.441649     -0.640170
C      7.29314     10.40319      3.19606        -0.428788      0.040190      0.839843
C      6.23373     10.35913      4.25547         0.242556      0.084261     -0.113806
C      7.29314      0.08601      7.29314        -0.437780     -0.023876     -0.275283
C      6.23373      0.13007      6.23373         0.443937     -0.066507      0.490176
C      3.19606      0.08601      3.19606         0.734501     -0.017381      0.406722
C      4.25547      0.13007      4.25547        -0.105774     -0.054469     -0.438153
C      3.19606     10.40319      7.29314         0.707292     -0.004036     -0.679580
C      4.25547     10.35913      6.23373        -0.239656      0.101157      0.213251
C      3.19606      7.29314     10.40319         0.502695     -1.283367     -0.031568
C      4.25547      6.23373     10.35913        -0.441165      0.841527      0.048619
C      7.29314      7.29314      0.08601        -0.562563     -0.237437     -0.014714
C      6.23373      6.23373      0.13007         0.171772      0.139544     -0.015904
C      3.19606      3.19606      0.08601         0.242089      0.311475     -0.023971
C      4.25547      4.25547      0.13007        -0.068123     -0.046346      0.017793
C      7.29314      3.19606     10.40319        -0.355980      0.715755      0.016537
C      6.23373      4.25547     10.35913         1.105139      0.070752      0.009483
O     10.43466      3.58206      8.50569        -0.034959      0.037643      0.429610
O     10.54374     17.39634      8.50569        -0.023322     -0.104296      0.479813
O     10.54374      3.58206     12.47271         0.051350     -0.011977     -0.216932
O     10.43466     17.39634     12.47271        -0.046982     -0.075597     -0.540796
O      8.50569     10.43466      3.58206         0.391324     -0.015466     -0.014360
O      8.50569     10.54374     17.39634         0.544040      0.028121     -0.157648
O     12.47271     10.54374      3.58206        -0.650197     -0.024102      0.158822
O     12.47271     10.43466     17.39634        -0.652125     -0.026288     -0.089940
O      3.58206      8.50569     10.43466         0.171840      1.106762      0.000106
O     17.39634      8.50569     10.54374        -0.039417      0.366579      0.073570
O      3.58206     12.47271     10.54374         0.079628     -0.488813      0.031486
O     17.39634     12.47271     10.43466        -0.163826     -0.715945      0.013354
O      3.58206     10.43466      8.50569        -0.010344     -0.066957      0.542594
O     17.39634     10.54374      8.50569        -0.114339      0.041205      0.402991
O      3.58206     10.54374     12.47271         0.040739      0.010429     -0.416399
O     17.39634     10.43466     12.47271        -0.219479      0.023174     -0.729401
O     10.43466      8.50569      3.58206         0.083072      0.814862      0.195738
O     10.54374      8.50569     17.39634         0.071402      0.615352     -0.129746
O     10.54374     12.47271      3.58206        -0.038081     -0.893309      0.243288
O     10.43466     12.47271     17.39634         0.010675     -0.948044     -0.219180
O      8.50569      3.58206     10.43466         0.513396      0.091104     -0.022488
O      8.50569     17.39634     10.54374         0.634508     -0.245671     -0.037507
O     12.47271      3.58206     10.54374        -0.447703      0.134159      0.052668
O     12.47271     17.39634     10.43466        -0.418223      0.028629     -0.017735
O     11.90042     11.90042     19.56718        -0.266198     -0.333013      0.250296
O     19.56718     19.56718     19.56718         0.286868      0.271121      0.299699
O     19.56718     11.90042     11.90042         0.277363     -0.320063     -0.211394
O     11.90042     19.56718     11.90042        -0.273452      0.289130     -0.261965
O      9.45224      1.03696      9.45224        -0.080920      0.049421     -0.057572
O      1.03696      9.45224      9.45224         0.056571     -0.159511     -0.097009
O      1.03696      1.03696      1.03696         0.015613      0.069862      0.191393
O      9.45224      9.45224      1.03696        -0.055252     -0.084298      0.134746
Zr     10.48920      2.52580     10.48920        -0.026980     -0.079975     -0.128937
Zr     10.48920     18.45260     10.48920         0.096857      0.262750      0.010773
Zr     10.48920     10.48920      2.52580         0.008463     -0.109999     -0.514984
Zr     10.48920     10.48920     18.45260        -0.206197      0.025293      0.455842
Zr      2.52580     10.48920     10.48920        -0.396328      0.268868      0.106761
Zr     18.45260     10.48920     10.48920         0.207423      0.061183     -0.292299
Pd      8.62611      9.87623     13.37987        -0.006632      0.102131     -0.071411
Pd     10.52859      9.55054     10.33575         0.049710     -0.030837     -0.169505
Pd     13.48035      8.74158     12.54079         0.041194      0.015871     -0.039685
Pd     10.78957     10.67406     15.13040        -0.132767     -0.027691     -0.075105
Pd     12.99255     11.29866     13.37907         0.110061      0.037414      0.018256
Pd     14.98115     10.74169     11.28419         0.021106      0.072156      0.037604
Pd      6.64822      7.91269     12.49823         0.141722      0.006665      0.088969
Pd      9.29479      7.21522      9.67771        -0.053808     -0.015607     -0.088648
Pd      9.34804      7.47135     12.42290         0.084453     -0.018779      0.010363
Pd     11.71370      7.29905     11.19344        -0.121914     -0.146724     -0.131284
Pd     11.71034      7.78604      8.51412        -0.033575      0.113707     -0.022967
Pd      7.29515     11.73563     11.64358        -0.086258     -0.115942     -0.058282
Pd      9.27433     14.57446      9.56044         0.078775     -0.172556     -0.175419
Pd      8.05715     12.40463     14.25226         0.161758     -0.094965     -0.046186
Pd     14.16231     14.19797      8.32806        -0.001457      0.046668      0.015658
Pd     11.64435     13.47455      8.87724        -0.022351     -0.076653      0.044460
Pd     14.10519     11.63509      8.93087        -0.098307     -0.030239     -0.045999
Pd      8.76027     13.90350     12.23792        -0.035713      0.121569     -0.115015
Pd     12.17419     13.73700     14.08668         0.013087      0.114430     -0.019305
Pd     11.38430     14.09196     11.48695         0.078633      0.044626     -0.056536
Pd     14.01344     13.52408     12.17546         0.096238     -0.105039     -0.035588
Pd     12.36975     11.69257     10.87788        -0.026684     -0.043864      0.068198
Pd     12.77625     12.60453      6.65627         0.067253      0.073435     -0.049993
Pd     13.96887      8.90686      7.68079        -0.077225     -0.015039      0.011045
Pd      7.00657      8.41661      8.60538        -0.013386      0.048609     -0.033613
Pd      5.63611     10.08507     10.29425         0.076411     -0.059641     -0.031621
Pd      9.42443      9.33014      7.70538        -0.045532     -0.016486     -0.002583
Pd      8.47203      6.85610      7.06529         0.076891      0.073766      0.020819
Pd      9.73462     12.01345     10.53710        -0.042132     -0.120002     -0.109903
Pd     11.67473     10.71194      8.19957        -0.107993     -0.010331      0.086983
Pd     11.71973      9.00669      6.08701        -0.055555      0.067300      0.083705
Pd     10.23886     11.28532      6.00540        -0.023442      0.073338     -0.136068
Ir     11.07292      9.53658     12.77889        -0.093432     -0.153087      0.203249
Ir     13.16546      9.35241     10.04873         0.075776      0.044671      0.093726
Ir     10.44888     11.99191     12.93058         0.083602      0.141476      0.154687
Ir      7.80920     10.91888      9.09869        -0.041468      0.086197      0.084711
Ir      9.32284     12.40744      8.06393         0.062955     -0.077941      0.040780
Ir      8.10481      9.25125     10.92394        -0.070297      0.010293     -0.165402
