152
# total energy = -1002.53073460 eVH     10.35389      5.87395      7.64558         0.106595      0.070443      1.275822
H     10.62451     15.10445      7.64558         0.007977     -0.047298      1.065052
H     10.62451      5.87395     13.33282         0.201947      0.036164     -1.224990
H     10.35389     15.10445     13.33282        -0.234186     -0.149779     -1.026094
H      7.64558     10.35389      5.87395         0.956222      0.413362     -0.294268
H      7.64558     10.62451     15.10445         0.690784      0.230463      0.069519
H     13.33282     10.62451      5.87395        -0.887158      0.327385     -0.016758
H     13.33282     10.35389     15.10445        -0.646973     -0.102229      0.029822
H      5.87395      7.64558     10.35389        -0.340107      2.087808      0.343717
H     15.10445      7.64558     10.62451         0.102079      1.570210      0.062921
H      5.87395     13.33282     10.62451        -0.119366     -1.109853     -0.361907
H     15.10445     13.33282     10.35389         0.089330     -1.192810     -0.318567
H      5.87395     10.35389      7.64558        -0.989214      0.361641      1.406066
H     15.10445     10.62451      7.64558         0.321057      0.537629      1.419730
H      5.87395     10.62451     13.33282        -0.993650      0.556044     -1.372727
H     15.10445     10.35389     13.33282         0.915882     -0.060078     -1.142871
H     10.35389      7.64558      5.87395         0.426872      1.190991     -0.141030
H     10.62451      7.64558     15.10445         0.258504      0.643026     -0.088086
H     10.62451     13.33282      5.87395        -0.526182     -1.148560     -0.088622
H     10.35389     13.33282     15.10445        -0.127043     -0.494830     -0.145544
H      7.64558      5.87395     10.35389         0.713158     -0.122918      0.013828
H      7.64558     15.10445     10.62451         0.563975     -0.146505     -0.113339
H     13.33282      5.87395     10.62451        -0.892194      0.050765      0.130223
H     13.33282     15.10445     10.35389        -0.442265     -0.089383     -0.068371
H     12.45634     12.45634     19.01126         0.256532      0.235707     -0.248571
H     19.01126     19.01126     19.01126        -0.253163     -0.249860     -0.239922
H     19.01126     12.45634     12.45634        -0.258403      0.266904      0.231074
H     12.45634     19.01126     12.45634         0.264468     -0.268804      0.223393
C     10.35284      5.61067      6.59456        -0.069192     -1.013848     -1.095419
C     10.62556     15.36773      6.59456        -0.134410      0.563353     -0.874311
C     10.62556      5.61067     14.38384        -0.246923     -0.494725      1.559070
C     10.35284     15.36773     14.38384         0.193862      0.279311      1.035784
C      6.59456     10.35284      5.61067        -1.890168      0.170465     -1.204056
C      6.59456     10.62556     15.36773        -1.038143      0.189309      0.828950
C     14.38384     10.62556      5.61067         1.668199      0.146211     -0.899496
C     14.38384     10.35284     15.36773         1.066992     -0.005238      0.658972
C      5.61067      6.59456     10.35284        -0.572194     -1.540646     -0.014575
C     15.36773      6.59456     10.62556         0.513694     -0.757543      0.065884
C      5.61067     14.38384     10.62556        -0.264398      1.161842      0.113360
C     15.36773     14.38384     10.35284         0.258583      1.319504      0.068886
C      5.61067     10.35284      6.59456        -0.488371      0.009137     -1.792473
C     15.36773     10.62556      6.59456         0.462098      0.097195     -1.253275
C      5.61067     10.62556     14.38384        -0.127692     -0.070527      1.723012
C     15.36773     10.35284     14.38384         0.079571     -0.020076      1.624907
C     10.35284      6.59456      5.61067         0.012348     -1.187162     -0.772230
C     10.62556      6.59456     15.36773         0.110897     -0.589006      0.614744
C     10.62556     14.38384      5.61067         0.146597      1.025934     -0.564298
C     10.35284     14.38384     15.36773        -0.041791      0.461536      0.461236
C      6.59456      5.61067     10.35284        -0.475909     -1.137829     -0.000122
C      6.59456     15.36773     10.62556        -0.750531      0.718466     -0.037418
C     14.38384      5.61067     10.62556         0.591365     -0.816879     -0.149257
C     14.38384     15.36773     10.35284         0.434572      0.566428     -0.037660
C     10.40319      3.19606      7.29314        -0.026967      0.304740     -0.752198
C     10.35913      4.25547      6.23373        -0.055549     -0.579027      0.152418
C      0.08601      7.29314      7.29314        -0.006942     -0.421185     -0.321077
C      0.13007      6.23373      6.23373        -0.014742      0.398647      0.280958
C      0.08601      3.19606      3.19606         0.017461      0.467859      0.531006
C      0.13007      4.25547      4.25547         0.008030     -0.472167     -0.465486
C     10.40319      7.29314      3.19606        -0.056656     -0.850305      0.283223
C     10.35913      6.23373      4.25547         0.001356      0.319912     -0.652128
C      7.29314     10.40319      3.19606        -0.752608     -0.019367      0.103713
C      6.23373     10.35913      4.25547         0.357000     -0.037464     -0.399187
C      7.29314      0.08601      7.29314        -0.445815     -0.054165     -0.266647
C      6.23373      0.13007      6.23373         0.469007     -0.155692      0.309634
C      3.19606      0.08601      3.19606         0.867190     -0.024966      0.210442
C      4.25547      0.13007      4.25547        -0.465072     -0.217141     -0.539765
C      3.19606     10.40319      7.29314         0.307260     -0.001895     -0.205423
C      4.25547     10.35913      6.23373        -0.282128     -0.029148      0.380015
C      3.19606      7.29314     10.40319         0.264687     -0.420169      0.006974
C      4.25547      6.23373     10.35913        -0.814199      0.142423      0.072595
C      7.29314      7.29314      0.08601        -0.412956     -0.361030     -0.000993
C      6.23373      6.23373      0.13007         0.763871      0.091566      0.001709
C      3.19606      3.19606      0.08601         0.746874      0.325911      0.001691
C      4.25547      4.25547      0.13007        -0.360152     -0.644039     -0.041343
C      7.29314      3.19606     10.40319        -0.323892      0.395179      0.017020
C      6.23373      4.25547     10.35913         0.422472     -0.418567      0.068183
O     10.43466      3.58206      8.50569         0.081066      0.228849      0.675407
O     10.54374     17.39634      8.50569         0.017823     -0.160631      0.434867
O     10.54374      3.58206     12.47271         0.096922      0.164651     -0.532431
O     10.43466     17.39634     12.47271        -0.025933     -0.076937     -0.358239
O      8.50569     10.43466      3.58206         0.681544     -0.115339      0.234951
O      8.50569     10.54374     17.39634         0.581861     -0.008970     -0.234044
O     12.47271     10.54374      3.58206        -0.797166      0.069932      0.283348
O     12.47271     10.43466     17.39634        -0.479695      0.007367     -0.215869
O      3.58206      8.50569     10.43466         0.173046      0.571978     -0.020998
O     17.39634      8.50569     10.54374        -0.152118      0.499681      0.038146
O      3.58206     12.47271     10.54374         0.081054     -0.403286      0.029997
O     17.39634     12.47271     10.43466        -0.176127     -0.516921     -0.028194
O      3.58206     10.43466      8.50569         0.171626     -0.021591      0.360610
O     17.39634     10.54374      8.50569        -0.140474      0.061948      0.382607
O      3.58206     10.54374     12.47271         0.026601      0.049120     -0.222050
O     17.39634     10.43466     12.47271        -0.056235     -0.012491     -0.197056
O     10.43466      8.50569      3.58206        -0.091376      0.727938      0.165812
O     10.54374      8.50569     17.39634        -0.004433      0.565360     -0.190874
O     10.54374     12.47271      3.58206         0.034488     -0.511426      0.081985
O     10.43466     12.47271     17.39634        -0.021692     -0.411299     -0.077049
O      8.50569      3.58206     10.43466         0.557294      0.137778     -0.035591
O      8.50569     17.39634     10.54374         0.585426     -0.184919      0.043021
O     12.47271      3.58206     10.54374        -0.742638      0.188246      0.027304
O     12.47271     17.39634     10.43466        -0.508424     -0.140861     -0.024857
O     11.90042     11.90042     19.56718        -0.297667     -0.254548      0.287663
O     19.56718     19.56718     19.56718         0.300319      0.308933      0.284179
O     19.56718     11.90042     11.90042         0.314873     -0.304713     -0.226907
O     11.90042     19.56718     11.90042        -0.310940      0.330586     -0.207911
O      9.45224      1.03696      9.45224        -0.023177      0.097368     -0.057518
O      1.03696      9.45224      9.45224         0.054511     -0.019964     -0.065633
O      1.03696      1.03696      1.03696         0.042169      0.087604      0.114724
O      9.45224      9.45224      1.03696        -0.048852     -0.025756      0.142922
Zr     10.48920      2.52580     10.48920        -0.182634     -0.284831      0.015108
Zr     10.48920     18.45260     10.48920         0.076329      0.088469     -0.082025
Zr     10.48920     10.48920      2.52580        -0.010091      0.060216     -0.397182
Zr     10.48920     10.48920     18.45260         0.000339     -0.056078      0.214596
Zr      2.52580     10.48920     10.48920        -0.096941     -0.111098     -0.073803
Zr     18.45260     10.48920     10.48920         0.094083     -0.009699     -0.087234
Pd     11.81256      8.57845     10.28147        -0.082808      0.098006     -0.003569
Pd      7.07997     10.15370     10.35117         0.120320     -0.014499      0.125921
Pd      7.21769     12.60942     11.73838         0.061675     -0.223453     -0.011233
Pd     11.94606     13.28685      7.31216         0.039206      0.027710      0.076897
Pd     11.39808      8.29532      7.45652         0.019407     -0.021432      0.194932
Pd      8.79808      7.15079      7.32244        -0.132307      0.114929      0.080499
Pd     11.49631     10.92843      6.03510         0.113318      0.016507      0.092795
Pd     13.54898      9.56800      7.63429         0.261852     -0.006993     -0.065681
Pd      9.35987     11.83876      7.34305         0.166789      0.017560      0.095038
Pd      7.08418      7.78705     11.79619        -0.014747     -0.088722     -0.079797
Pd      6.83222      7.73047      8.81497         0.052036     -0.148181      0.120368
Pd      7.45816     10.09791     12.93741         0.121732     -0.088732     -0.012289
Pd     11.53103      6.11650      9.07229        -0.066166      0.009607      0.032888
Pd      9.36866      9.43954      5.93400         0.065003      0.182855     -0.000090
Pd      9.27365     14.10798      8.73063        -0.000942      0.037678      0.069106
Pd     11.51798      6.32442     11.72292        -0.043300      0.003936      0.021214
Pd      9.60248      9.31471      9.00261         0.172453     -0.012444      0.134220
Pd      9.26167     11.79601     10.12832         0.124083     -0.138244     -0.014870
Pd      9.32175      7.05185     10.27222         0.068808      0.123786      0.019398
Pd      9.18423      7.21456     13.16356         0.011130     -0.014515      0.062659
Pd      9.46918      9.42091     11.60626         0.156434      0.031740     -0.179867
Pd     11.58870     10.99213      8.75059         0.009462     -0.074056      0.230925
Pd      7.05126     12.50366      8.79780         0.100792      0.021688      0.180778
Pd      7.56331      9.96651      7.84871        -0.015241     -0.014764      0.019824
Pd     13.91070      7.39756      8.95840        -0.099761     -0.210286      0.050400
Pd     13.82564      7.84550     12.08021        -0.133489      0.105152     -0.025518
Pd      9.42710     11.93832     12.94975        -0.020667     -0.127430      0.074594
Pd     13.93232     12.34908      8.75098         0.022016     -0.018642      0.019031
Pd     13.45195     10.42583     12.79122        -0.021958      0.020411     -0.007912
Pd     13.91692     10.11599     10.24016         0.074176     -0.083084     -0.081886
Pd     11.48123     11.16923     11.41510        -0.014503     -0.112932     -0.038013
Pd     11.56872     13.47419      9.97615         0.078104     -0.096702      0.051713
Pd     13.69874     12.68584     11.46047         0.061774     -0.081120     -0.047745
Pd     11.68196     13.57174     12.85735        -0.018787     -0.097578     -0.005800
Pd     11.52802     11.32530     14.37024         0.070823     -0.027187     -0.005200
Pd     11.51905      8.70222     13.06553         0.119936      0.051546      0.066887
Pd      9.49969      9.57248     14.54629        -0.008134      0.075361      0.076928
Pd      9.43652     14.20416     11.41452        -0.035344     -0.062893     -0.014379
