152
# total energy = -1060.15195735 eVH     10.35389      5.87395      7.64558        -0.319739      0.100745      1.088649
H     10.62451     15.10445      7.64558         0.079596     -0.070486      0.899354
H     10.62451      5.87395     13.33282        -0.269335      0.072867     -0.783037
H     10.35389     15.10445     13.33282         0.092312     -0.303859     -0.822359
H      7.64558     10.35389      5.87395         0.894651     -0.201889      0.206841
H      7.64558     10.62451     15.10445         0.316116     -0.028865     -0.061605
H     13.33282     10.62451      5.87395        -0.886417      0.220348      0.221443
H     13.33282     10.35389     15.10445        -0.281758     -0.029483     -0.061165
H      5.87395      7.64558     10.35389         0.093417      0.420680     -0.012852
H     15.10445      7.64558     10.62451        -0.041688      0.437053     -0.030602
H      5.87395     13.33282     10.62451        -0.018169     -0.969807      0.077696
H     15.10445     13.33282     10.35389        -0.081950     -0.326952      0.001840
H      5.87395     10.35389      7.64558         0.318971      0.061969      0.370536
H     15.10445     10.62451      7.64558        -0.119952     -0.159425      0.666616
H      5.87395     10.62451     13.33282        -0.062539      0.452843     -0.599511
H     15.10445     10.35389     13.33282         0.227564     -0.639460     -0.873414
H     10.35389      7.64558      5.87395        -0.021581      0.500504      0.345792
H     10.62451      7.64558     15.10445         0.335875      0.790738     -0.004360
H     10.62451     13.33282      5.87395         0.154107     -0.568901      0.201522
H     10.35389     13.33282     15.10445         0.033752     -0.288623     -0.167073
H      7.64558      5.87395     10.35389         0.370269      0.113383      0.063678
H      7.64558     15.10445     10.62451         0.388494     -0.128259      0.178970
H     13.33282      5.87395     10.62451        -0.306938      0.137222     -0.014212
H     13.33282     15.10445     10.35389        -0.658817     -0.106484      0.136469
H     12.45634     12.45634     19.01126         0.259028      0.272112     -0.226460
H     19.01126     19.01126     19.01126        -0.247812     -0.267635     -0.244473
H     19.01126     12.45634     12.45634        -0.249118      0.271389      0.236922
H     12.45634     19.01126     12.45634         0.289937     -0.235450      0.235292
C     10.35284      5.61067      6.59456         0.402938     -0.420794     -1.358356
C     10.62556     15.36773      6.59456        -0.167164      0.609062     -0.660445
C     10.62556      5.61067     14.38384         0.365747     -0.276638      0.775710
C     10.35284     15.36773     14.38384        -0.205533      0.216301      1.026418
C      6.59456     10.35284      5.61067        -1.395742      0.031872     -0.228854
C      6.59456     10.62556     15.36773        -0.667534      0.065087      0.356842
C     14.38384     10.62556      5.61067         1.307956     -0.187249     -0.629552
C     14.38384     10.35284     15.36773         0.317926     -0.131659      0.350529
C      5.61067      6.59456     10.35284        -0.274112     -0.672837     -0.030072
C     15.36773      6.59456     10.62556         0.409951     -0.859781      0.028797
C      5.61067     14.38384     10.62556        -0.147710      1.196170     -0.220229
C     15.36773     14.38384     10.35284         0.505331      0.705226     -0.036742
C      5.61067     10.35284      6.59456        -0.373927     -0.102518     -0.781480
C     15.36773     10.62556      6.59456         0.403930      0.106550     -0.681621
C      5.61067     10.62556     14.38384        -0.411124     -0.163597      1.219013
C     15.36773     10.35284     14.38384         0.235232      0.224834      1.418144
C     10.35284      6.59456      5.61067        -0.069235     -0.748171     -0.549129
C     10.62556      6.59456     15.36773        -0.143402     -0.983147      0.376537
C     10.62556     14.38384      5.61067        -0.493246      0.378639     -0.738732
C     10.35284     14.38384     15.36773        -0.174234      0.744926      0.496084
C      6.59456      5.61067     10.35284        -0.562969     -0.336369      0.002948
C      6.59456     15.36773     10.62556        -0.366135      0.447631      0.064948
C     14.38384      5.61067     10.62556         0.433875     -0.310730      0.008322
C     14.38384     15.36773     10.35284         1.131931      0.489084     -0.077966
C     10.40319      3.19606      7.29314        -0.007042      0.774837     -0.334735
C     10.35913      4.25547      6.23373         0.023222     -0.379866      0.289524
C      0.08601      7.29314      7.29314        -0.018622     -0.378941     -0.506462
C      0.13007      6.23373      6.23373        -0.047333      0.882455      0.092813
C      0.08601      3.19606      3.19606        -0.007235      0.695310      0.260512
C      0.13007      4.25547      4.25547         0.045321     -0.265717     -0.547107
C     10.40319      7.29314      3.19606        -0.064092     -1.116569      0.617391
C     10.35913      6.23373      4.25547        -0.046345      0.346481     -0.202338
C      7.29314     10.40319      3.19606        -1.094003     -0.055072      0.200951
C      6.23373     10.35913      4.25547         0.379653      0.101213     -0.520743
C      7.29314      0.08601      7.29314        -0.474302      0.028952     -0.444469
C      6.23373      0.13007      6.23373         0.179793      0.122203      0.120827
C      3.19606      0.08601      3.19606         0.701850      0.023196      0.171559
C      4.25547      0.13007      4.25547        -0.172099     -0.050361     -0.366456
C      3.19606     10.40319      7.29314         0.367635     -0.026503     -0.951462
C      4.25547     10.35913      6.23373        -0.128560     -0.055312      0.114165
C      3.19606      7.29314     10.40319         0.615035     -0.399535      0.002393
C      4.25547      6.23373     10.35913        -0.115397      0.177379      0.011495
C      7.29314      7.29314      0.08601        -0.428909     -0.295594     -0.015356
C      6.23373      6.23373      0.13007         0.150271      0.154204     -0.062053
C      3.19606      3.19606      0.08601         0.293640      0.491522     -0.025113
C      4.25547      4.25547      0.13007        -0.403498     -0.240122     -0.031209
C      7.29314      3.19606     10.40319        -0.283606      0.593959     -0.009950
C      6.23373      4.25547     10.35913         0.016527     -0.092805      0.014772
O     10.43466      3.58206      8.50569        -0.026391      0.075493      0.304873
O     10.54374     17.39634      8.50569         0.064454     -0.124028      0.594222
O     10.54374      3.58206     12.47271         0.029322      0.101501     -0.398370
O     10.43466     17.39634     12.47271         0.094314     -0.062222     -0.431791
O      8.50569     10.43466      3.58206         0.735328     -0.072477      0.015675
O      8.50569     10.54374     17.39634         0.531485      0.061466     -0.104123
O     12.47271     10.54374      3.58206        -0.656240      0.111874      0.210852
O     12.47271     10.43466     17.39634        -0.279771      0.004143      0.035479
O      3.58206      8.50569     10.43466         0.034218      0.444517     -0.062875
O     17.39634      8.50569     10.54374        -0.053535      0.446295      0.056461
O      3.58206     12.47271     10.54374         0.104083     -0.588043      0.004230
O     17.39634     12.47271     10.43466        -0.181156     -0.741015     -0.049771
O      3.58206     10.43466      8.50569         0.209257     -0.061438      0.807660
O     17.39634     10.54374      8.50569        -0.074106      0.071866      0.493447
O      3.58206     10.54374     12.47271        -0.003496     -0.005371     -0.262046
O     17.39634     10.43466     12.47271         0.035886     -0.010467     -0.232431
O     10.43466      8.50569      3.58206        -0.107040      0.532742     -0.101035
O     10.54374      8.50569     17.39634         0.059395      0.510556     -0.085782
O     10.54374     12.47271      3.58206         0.102856     -0.638649      0.129269
O     10.43466     12.47271     17.39634        -0.065919     -0.689159     -0.274988
O      8.50569      3.58206     10.43466         0.396912      0.022997     -0.046090
O      8.50569     17.39634     10.54374         0.641308     -0.154617      0.046286
O     12.47271      3.58206     10.54374        -0.516830      0.121279      0.028655
O     12.47271     17.39634     10.43466        -0.624326     -0.124745      0.040650
O     11.90042     11.90042     19.56718        -0.278440     -0.304581      0.223157
O     19.56718     19.56718     19.56718         0.309825      0.322358      0.298127
O     19.56718     11.90042     11.90042         0.283988     -0.325610     -0.235547
O     11.90042     19.56718     11.90042        -0.314247      0.229343     -0.201172
O      9.45224      1.03696      9.45224        -0.074002      0.086385     -0.079947
O      1.03696      9.45224      9.45224         0.100373     -0.108790     -0.061511
O      1.03696      1.03696      1.03696         0.079489      0.053635      0.098492
O      9.45224      9.45224      1.03696        -0.058223     -0.126062      0.136150
Zr     10.48920      2.52580     10.48920         0.043559     -0.093447      0.121100
Zr     10.48920     18.45260     10.48920        -0.182363      0.247649     -0.360124
Zr     10.48920     10.48920      2.52580         0.111726      0.358610     -0.345993
Zr     10.48920     10.48920     18.45260        -0.079417     -0.259133      0.233482
Zr      2.52580     10.48920     10.48920        -0.239669      0.131769      0.243767
Zr     18.45260     10.48920     10.48920         0.195834     -0.137442     -0.019992
Pd      9.36089     14.30045      9.31565        -0.000428      0.018583     -0.035553
Pd      8.59009     13.64025     13.04310         0.011921     -0.004221      0.017194
Pd     12.02414     14.40621      8.74331         0.007792     -0.016077      0.017152
Pd     12.75916     12.87694     10.67833        -0.048204      0.009878      0.044218
Pd     12.12000      7.19210     12.67585         0.004390      0.003523     -0.008935
Pd     11.16177     14.89908     11.45596        -0.022752      0.026094     -0.020798
Pd     10.03713     12.55141     11.08724        -0.048973      0.038836     -0.023075
Pd     13.47964     12.15381      7.98275         0.012889      0.009269      0.004914
Pd     11.47948     11.54145      6.10851         0.006822      0.013224      0.001124
Pd      7.94237      8.38133      7.52450        -0.001036     -0.030503     -0.009456
Pd      8.72075     11.75656      6.84447        -0.008282      0.009890      0.009323
Pd     10.32350      9.45346      8.14961        -0.017270     -0.002146      0.008346
Pd      8.49847     14.46365      6.79320        -0.012920      0.004396     -0.020513
Pd     12.39849      9.01650      6.56714        -0.009474      0.028851      0.035530
Pd      9.71740      9.60886      5.57283         0.006802      0.006088      0.003562
Pd      6.81390      9.45181     12.13917         0.025510      0.011659      0.002151
Pd     12.17761      6.74293      7.95277         0.014990      0.005001      0.004863
Pd      5.91392     10.48351      9.69095         0.000850     -0.005919      0.007344
Pd      7.54958      7.24027     13.40841         0.011550     -0.004383     -0.018469
Ir     11.73704      9.77631     13.06639        -0.014628     -0.018443      0.002853
Ir     13.55291      9.05630     11.47540        -0.020744     -0.002089      0.011036
Ir      9.42600      8.86364     14.01019        -0.018435     -0.020937      0.005574
Ir     10.50530     11.02236     14.88114        -0.002724     -0.034411      0.072565
Ir      7.26926     12.01537     11.33865         0.012058     -0.009946      0.015094
Ir     14.65134     10.91053     10.15006        -0.002198      0.022503      0.025958
Ir     12.16406     10.57028      9.67744        -0.004096     -0.012182     -0.013583
Ir      8.74456     10.99727     12.98913         0.001559      0.045584     -0.023154
Ir     10.10685      9.91700     11.17450         0.005095      0.017027     -0.022874
Ir     13.73999     11.41866     12.48688        -0.037821      0.004475      0.047322
Ir     11.59447     12.35640     13.08651        -0.071275     -0.021868      0.009939
Ir      8.49929     11.09744      9.33443        -0.019364      0.021400     -0.002145
Ir     11.59236      8.02728     10.14324         0.025732      0.010362      0.010642
Ir      7.21670     13.03137      8.65572         0.029331     -0.002379      0.017639
Ir      9.54774      6.96382      9.24012         0.004444     -0.018191     -0.015424
Ir      8.05397      8.76477     10.05876        -0.015375      0.007802     -0.003169
Ir     10.72216     12.12364      8.50378        -0.002670     -0.001365     -0.007864
Ir      9.51366      7.57266     11.75593         0.001352      0.000063      0.018362
Ir     13.66736      8.79655      8.84105         0.014205     -0.000114      0.023301
