8
# total energy = -53.48216846 eVC      1.14292     13.21364      0.00000         0.000000     -0.459188      0.000000
C      1.14292      4.07256     -0.00000         0.000000      0.459188      0.000000
O      1.14292      5.26459      0.00000         0.000000     -0.131454      0.000000
O      1.14292     12.02161     -0.00000         0.000000      0.131454     -0.000000
O     -0.00000     13.98049      0.00000         0.000000      0.205958      0.000000
O      0.00000      3.30571     -0.00000        -0.000000     -0.205958      0.000000
Ir     -0.00000      8.64310      0.00000         0.000000      0.000000      0.000000
Ir     -0.00000      0.00000      0.00000         0.000000      0.000000      0.000000
