152
# total energy = -1024.31469621 eVH     10.35389      5.87395      7.64558         0.469616      0.040767      0.741881
H     10.62451     15.10445      7.64558         0.015392     -0.189040      0.589887
H     10.62451      5.87395     13.33282         0.104863      0.158832     -0.579807
H     10.35389     15.10445     13.33282        -0.431188     -0.049361     -0.777570
H      7.64558     10.35389      5.87395         0.343006      0.012337      0.171075
H      7.64558     10.62451     15.10445         0.891988     -0.344129     -0.014124
H     13.33282     10.62451      5.87395        -0.762996     -0.058507      0.155603
H     13.33282     10.35389     15.10445        -0.873957     -0.396355      0.198579
H      5.87395      7.64558     10.35389         0.206552      0.629632     -0.118574
H     15.10445      7.64558     10.62451        -0.140070      0.396940     -0.041383
H      5.87395     13.33282     10.62451         0.160991     -0.523537     -0.114225
H     15.10445     13.33282     10.35389        -0.081020     -1.181267      0.013387
H      5.87395     10.35389      7.64558         0.133099      0.144495      0.515729
H     15.10445     10.62451      7.64558         0.019027      0.096429      1.029088
H      5.87395     10.62451     13.33282         0.103132     -0.051648     -0.418128
H     15.10445     10.35389     13.33282        -0.123885     -0.165330     -0.549722
H     10.35389      7.64558      5.87395         0.034428      0.975321      0.241470
H     10.62451      7.64558     15.10445         0.009631      0.277271     -0.174865
H     10.62451     13.33282      5.87395        -0.088722     -0.426688      0.323511
H     10.35389     13.33282     15.10445        -0.460262     -0.638159     -0.018283
H      7.64558      5.87395     10.35389         0.482439      0.116554      0.014240
H      7.64558     15.10445     10.62451         0.892159     -0.254317     -0.055674
H     13.33282      5.87395     10.62451        -0.581682      0.133283     -0.076005
H     13.33282     15.10445     10.35389        -0.632682     -0.053289      0.228795
H     12.45634     12.45634     19.01126         0.237589      0.276076     -0.235934
H     19.01126     19.01126     19.01126        -0.251839     -0.246458     -0.242953
H     19.01126     12.45634     12.45634        -0.263227      0.267629      0.220823
H     12.45634     19.01126     12.45634         0.232928     -0.264785      0.241399
C     10.35284      5.61067      6.59456        -0.193448     -0.632670      0.067992
C     10.62556     15.36773      6.59456        -0.024801      0.374961     -0.772948
C     10.62556      5.61067     14.38384        -0.009068     -0.066746      0.702117
C     10.35284     15.36773     14.38384         0.145966      0.729941      0.190045
C      6.59456     10.35284      5.61067        -0.365530     -0.022243     -0.279652
C      6.59456     10.62556     15.36773        -1.022234      0.347316      0.358137
C     14.38384     10.62556      5.61067         0.407341      0.333072     -0.618272
C     14.38384     10.35284     15.36773         0.979924     -0.006517      0.328621
C      5.61067      6.59456     10.35284        -0.376011     -0.427547      0.305193
C     15.36773      6.59456     10.62556         0.194450     -0.518140      0.028404
C      5.61067     14.38384     10.62556        -0.191552      0.588527      0.013845
C     15.36773     14.38384     10.35284         0.355364      0.043889     -0.151746
C      5.61067     10.35284      6.59456        -0.315527     -0.070223     -0.954602
C     15.36773     10.62556      6.59456         0.804582     -0.321762     -0.990854
C      5.61067     10.62556     14.38384        -0.481810      0.012559      0.277619
C     15.36773     10.35284     14.38384         0.663431     -0.099371      1.098591
C     10.35284      6.59456      5.61067        -0.247909     -0.608491     -0.863752
C     10.62556      6.59456     15.36773         0.051377     -0.289784      0.070017
C     10.62556     14.38384      5.61067         0.096364      1.200077     -0.431180
C     10.35284     14.38384     15.36773         0.221241      0.121332      0.714050
C      6.59456      5.61067     10.35284        -0.321249     -0.733180      0.087063
C      6.59456     15.36773     10.62556        -1.200983      0.275803      0.094916
C     14.38384      5.61067     10.62556         0.939401     -0.284234      0.026694
C     14.38384     15.36773     10.35284        -0.516448      0.770533     -0.351974
C     10.40319      3.19606      7.29314        -0.016743      0.832409     -0.392526
C     10.35913      4.25547      6.23373         0.049980     -0.463409      0.570374
C      0.08601      7.29314      7.29314        -0.017886     -0.481261     -0.347457
C      0.13007      6.23373      6.23373        -0.019671      0.018364      0.096635
C      0.08601      3.19606      3.19606         0.001294      1.240631      0.190003
C      0.13007      4.25547      4.25547        -0.050777     -0.217705     -0.213878
C     10.40319      7.29314      3.19606        -0.003802     -1.031424      0.387166
C     10.35913      6.23373      4.25547         0.028519      0.469952     -0.648469
C      7.29314     10.40319      3.19606        -0.357385      0.041282      0.776694
C      6.23373     10.35913      4.25547         0.203621      0.087097     -0.107737
C      7.29314      0.08601      7.29314        -0.593161     -0.021976     -0.267738
C      6.23373      0.13007      6.23373         0.386127     -0.067638      0.463163
C      3.19606      0.08601      3.19606         0.925372     -0.010419      0.327000
C      4.25547      0.13007      4.25547        -0.108719     -0.042985     -0.511056
C      3.19606     10.40319      7.29314         0.459172     -0.004286     -0.806483
C      4.25547     10.35913      6.23373        -0.261693      0.103450      0.250071
C      3.19606      7.29314     10.40319         0.492531     -1.329558     -0.043453
C      4.25547      6.23373     10.35913        -0.407991      0.808888      0.068863
C      7.29314      7.29314      0.08601        -0.403137     -0.225350     -0.007060
C      6.23373      6.23373      0.13007         0.159530      0.145253     -0.011202
C      3.19606      3.19606      0.08601         0.247737      0.261913     -0.019358
C      4.25547      4.25547      0.13007        -0.107815     -0.051777      0.015864
C      7.29314      3.19606     10.40319        -0.366268      0.670331      0.009574
C      6.23373      4.25547     10.35913         1.113271      0.017251      0.020647
O     10.43466      3.58206      8.50569        -0.029499      0.055552      0.445801
O     10.54374     17.39634      8.50569        -0.004727     -0.089332      0.436058
O     10.54374      3.58206     12.47271         0.044005     -0.097577     -0.139752
O     10.43466     17.39634     12.47271        -0.057706     -0.050910     -0.476182
O      8.50569     10.43466      3.58206         0.308137     -0.032809     -0.041291
O      8.50569     10.54374     17.39634         0.682215      0.026474     -0.173509
O     12.47271     10.54374      3.58206        -0.743194     -0.037459      0.141992
O     12.47271     10.43466     17.39634        -0.412391     -0.026665     -0.027345
O      3.58206      8.50569     10.43466         0.146203      1.084792     -0.008245
O     17.39634      8.50569     10.54374        -0.088684      0.414164      0.062996
O      3.58206     12.47271     10.54374         0.068505     -0.409665      0.039299
O     17.39634     12.47271     10.43466        -0.162196     -0.692815      0.000789
O      3.58206     10.43466      8.50569         0.034554     -0.072419      0.685130
O     17.39634     10.54374      8.50569        -0.068784      0.044077      0.342912
O      3.58206     10.54374     12.47271        -0.008517      0.027497     -0.294734
O     17.39634     10.43466     12.47271        -0.246215      0.015181     -0.730076
O     10.43466      8.50569      3.58206         0.112525      0.829390      0.195796
O     10.54374      8.50569     17.39634         0.036555      0.670572     -0.161410
O     10.54374     12.47271      3.58206        -0.010248     -1.016633      0.198972
O     10.43466     12.47271     17.39634        -0.028275     -0.893078     -0.199298
O      8.50569      3.58206     10.43466         0.531591      0.107923     -0.017811
O      8.50569     17.39634     10.54374         0.523524     -0.207556     -0.012831
O     12.47271      3.58206     10.54374        -0.465528      0.156030      0.056705
O     12.47271     17.39634     10.43466        -0.390511      0.035588     -0.008813
O     11.90042     11.90042     19.56718        -0.272474     -0.325402      0.259087
O     19.56718     19.56718     19.56718         0.281990      0.285779      0.286627
O     19.56718     11.90042     11.90042         0.293139     -0.302929     -0.200541
O     11.90042     19.56718     11.90042        -0.269737      0.280818     -0.247524
O      9.45224      1.03696      9.45224        -0.083577      0.051936     -0.055787
O      1.03696      9.45224      9.45224         0.035985     -0.167331     -0.114444
O      1.03696      1.03696      1.03696         0.009930      0.116460      0.208861
O      9.45224      9.45224      1.03696        -0.063588     -0.087560      0.128380
Zr     10.48920      2.52580     10.48920        -0.032529     -0.119894     -0.171207
Zr     10.48920     18.45260     10.48920         0.019530      0.229525     -0.029492
Zr     10.48920     10.48920      2.52580        -0.107351     -0.180665     -0.536844
Zr     10.48920     10.48920     18.45260        -0.040813      0.030436      0.467392
Zr      2.52580     10.48920     10.48920        -0.368617      0.303164      0.124792
Zr     18.45260     10.48920     10.48920         0.203874      0.042864     -0.237962
Pd      8.53650      9.88719     13.22896        -0.032236     -0.035385      0.017388
Pd     10.52572      9.50750     10.25281         0.075398     -0.087882     -0.052417
Pd     13.30693      8.72763     12.46517        -0.029500     -0.010568      0.028789
Pd     10.43579     10.66010     15.07944        -0.041028      0.028199      0.029927
Pd     12.94888     11.35217     13.48574        -0.001084      0.019580     -0.003715
Pd     14.92164     10.69268     11.31277        -0.008174      0.014187      0.002308
Pd      6.84153      7.79704     12.46268         0.025754     -0.006621     -0.043782
Pd      9.21584      7.24715      9.56235         0.027044     -0.034865     -0.042437
Pd      9.52258      7.56486     12.28448        -0.030023     -0.019230     -0.006005
Pd     11.74220      7.16784     10.91615         0.013700      0.034513     -0.021297
Pd     11.61049      7.85143      8.33013        -0.007673      0.013096      0.007143
Pd      7.15939     11.74336     11.60398        -0.013161      0.001453      0.014158
Pd      9.21681     14.32383      9.34237         0.006746      0.046193      0.006476
Pd      8.13616     12.38875     14.17751         0.026206      0.004363     -0.009818
Pd     14.17866     14.21995      8.34460         0.010351     -0.016904     -0.001484
Pd     11.68469     13.34684      8.82557         0.024918     -0.011597     -0.032829
Pd     14.09867     11.64392      8.96736        -0.018157     -0.012551     -0.003385
Pd      8.73568     13.94656     12.12586         0.004112     -0.000179     -0.038205
Pd     12.19549     13.92907     13.97409         0.038866     -0.015662     -0.045046
Pd     11.37184     14.10350     11.35425         0.030261     -0.005016      0.020828
Pd     14.01020     13.39492     12.08513        -0.002472     -0.012399      0.042930
Pd     12.29662     11.57784     10.89369         0.047784      0.000450      0.004296
Pd     12.93481     12.62630      6.60716        -0.023610      0.003804      0.001321
Pd     13.93518      8.85569      7.58085        -0.034274      0.020298      0.017472
Pd      6.96664      8.48371      8.47913        -0.004121     -0.051554     -0.030569
Pd      5.55611     10.04448     10.19137        -0.051160     -0.019560     -0.032583
Pd      9.37768      9.48163      7.53244        -0.002674      0.010931      0.025635
Pd      8.49819      7.00018      6.96268        -0.004559     -0.005480     -0.020204
Pd      9.65703     11.94586     10.56946         0.006738      0.037843      0.030600
Pd     11.76582     10.64865      8.08273         0.049994     -0.039676      0.003692
Pd     11.73983      8.96397      5.90198         0.001148      0.020270      0.004126
Pd     10.50947     11.34242      5.77488         0.021157      0.014230      0.017576
Ir     11.01375      9.68817     12.73448        -0.040967     -0.016696     -0.025789
Ir     13.17189      9.30099      9.96697        -0.001589     -0.012019     -0.002448
Ir     10.49969     12.13774     12.93779        -0.002454      0.055410      0.006600
Ir      7.70975     11.02190      9.11220         0.034271      0.101456     -0.125270
Ir      9.53407     12.09495      8.01302        -0.044078     -0.032513     -0.048905
Ir      8.05215      9.27172     10.78639        -0.018841     -0.126279      0.092252
