13
# total energy = -105.61512823 eVC      1.26357      6.81252      0.00000        -0.012074      0.009079     -0.000000
C      3.78371      6.81252      0.00000         0.012074      0.009079      0.000000
C      3.78371      1.41999      0.00000         0.012074     -0.009079      0.000000
C      1.26357      1.41999     -0.00000        -0.012074     -0.009079     -0.000000
C     -0.00000      7.52466      0.00000        -0.000000      0.021994      0.000000
C     -0.00000      0.70785      0.00000        -0.000000     -0.021994      0.000000
C      2.52364      7.52047      0.00000        -0.000000      0.042905     -0.000000
C      2.52364      0.71204     -0.00000        -0.000000     -0.042905      0.000000
O      1.20227      2.72021     -0.00000        -0.010407      0.008229     -0.000000
O      3.84501      2.72021      0.00000         0.010407      0.008229      0.000000
O      3.84501      5.51230      0.00000         0.010407     -0.008229      0.000000
O      1.20227      5.51230     -0.00000        -0.010407     -0.008229     -0.000000
Ir      2.52364      4.11625      0.00000        -0.000000      0.000000      0.000000
