152
# total energy = -1024.30797244 eVH     10.35389      5.87395      7.64558         0.468924      0.041922      0.738519
H     10.62451     15.10445      7.64558         0.011925     -0.189701      0.589513
H     10.62451      5.87395     13.33282         0.108525      0.157099     -0.584988
H     10.35389     15.10445     13.33282        -0.423167     -0.050469     -0.773504
H      7.64558     10.35389      5.87395         0.342876      0.011277      0.172309
H      7.64558     10.62451     15.10445         0.888863     -0.351635     -0.016960
H     13.33282     10.62451      5.87395        -0.765165     -0.057812      0.153372
H     13.33282     10.35389     15.10445        -0.870630     -0.390336      0.192827
H      5.87395      7.64558     10.35389         0.208786      0.615622     -0.091933
H     15.10445      7.64558     10.62451        -0.140723      0.398093     -0.042104
H      5.87395     13.33282     10.62451         0.161975     -0.522094     -0.112608
H     15.10445     13.33282     10.35389        -0.080189     -1.176289      0.010500
H      5.87395     10.35389      7.64558         0.134223      0.141089      0.512939
H     15.10445     10.62451      7.64558         0.032543      0.082578      1.029837
H      5.87395     10.62451     13.33282         0.105269     -0.049025     -0.417846
H     15.10445     10.35389     13.33282        -0.121570     -0.161527     -0.562977
H     10.35389      7.64558      5.87395         0.029875      0.974055      0.245060
H     10.62451      7.64558     15.10445         0.010855      0.278509     -0.175445
H     10.62451     13.33282      5.87395        -0.085782     -0.429510      0.325954
H     10.35389     13.33282     15.10445        -0.454801     -0.639679     -0.020220
H      7.64558      5.87395     10.35389         0.480082      0.118055      0.024802
H      7.64558     15.10445     10.62451         0.892421     -0.257685     -0.041296
H     13.33282      5.87395     10.62451        -0.577798      0.136488     -0.076456
H     13.33282     15.10445     10.35389        -0.643757     -0.052122      0.227703
H     12.45634     12.45634     19.01126         0.238047      0.275640     -0.235693
H     19.01126     19.01126     19.01126        -0.252117     -0.246354     -0.242662
H     19.01126     12.45634     12.45634        -0.262918      0.267964      0.220942
H     12.45634     19.01126     12.45634         0.232239     -0.264554      0.241793
C     10.35284      5.61067      6.59456        -0.192866     -0.627094      0.065489
C     10.62556     15.36773      6.59456        -0.023683      0.371696     -0.766630
C     10.62556      5.61067     14.38384        -0.010565     -0.068614      0.709842
C     10.35284     15.36773     14.38384         0.145748      0.730488      0.191062
C      6.59456     10.35284      5.61067        -0.370370     -0.023128     -0.277469
C      6.59456     10.62556     15.36773        -1.021944      0.354285      0.366529
C     14.38384     10.62556      5.61067         0.412100      0.328366     -0.615544
C     14.38384     10.35284     15.36773         0.968789     -0.007585      0.336137
C      5.61067      6.59456     10.35284        -0.381339     -0.440018      0.282637
C     15.36773      6.59456     10.62556         0.194882     -0.520759      0.029190
C      5.61067     14.38384     10.62556        -0.189844      0.585787      0.013528
C     15.36773     14.38384     10.35284         0.356964      0.036151     -0.142414
C      5.61067     10.35284      6.59456        -0.313396     -0.069032     -0.941467
C     15.36773     10.62556      6.59456         0.800868     -0.314007     -1.017231
C      5.61067     10.62556     14.38384        -0.485167      0.010861      0.280470
C     15.36773     10.35284     14.38384         0.659265     -0.100036      1.104215
C     10.35284      6.59456      5.61067        -0.246768     -0.618681     -0.856077
C     10.62556      6.59456     15.36773         0.051331     -0.292216      0.074841
C     10.62556     14.38384      5.61067         0.097406      1.210672     -0.433199
C     10.35284     14.38384     15.36773         0.220835      0.120383      0.712083
C      6.59456      5.61067     10.35284        -0.337348     -0.732673      0.081617
C      6.59456     15.36773     10.62556        -1.205359      0.278569      0.086135
C     14.38384      5.61067     10.62556         0.924879     -0.281304      0.026146
C     14.38384     15.36773     10.35284        -0.509172      0.769352     -0.334244
C     10.40319      3.19606      7.29314        -0.016296      0.827895     -0.391653
C     10.35913      4.25547      6.23373         0.047713     -0.458779      0.570611
C      0.08601      7.29314      7.29314        -0.017641     -0.485325     -0.347650
C      0.13007      6.23373      6.23373        -0.019152      0.017771      0.095915
C      0.08601      3.19606      3.19606         0.000904      1.242646      0.187422
C      0.13007      4.25547      4.25547        -0.051288     -0.219228     -0.215380
C     10.40319      7.29314      3.19606        -0.003469     -1.032974      0.387444
C     10.35913      6.23373      4.25547         0.026132      0.468345     -0.648286
C      7.29314     10.40319      3.19606        -0.363648      0.041829      0.789316
C      6.23373     10.35913      4.25547         0.210050      0.086619     -0.109693
C      7.29314      0.08601      7.29314        -0.592107     -0.021920     -0.267717
C      6.23373      0.13007      6.23373         0.384500     -0.065235      0.462086
C      3.19606      0.08601      3.19606         0.918635     -0.010856      0.337232
C      4.25547      0.13007      4.25547        -0.108440     -0.045718     -0.509983
C      3.19606     10.40319      7.29314         0.465498     -0.003318     -0.790029
C      4.25547     10.35913      6.23373        -0.259347      0.103751      0.248272
C      3.19606      7.29314     10.40319         0.490720     -1.335103     -0.044026
C      4.25547      6.23373     10.35913        -0.394425      0.813215      0.060426
C      7.29314      7.29314      0.08601        -0.406541     -0.227711     -0.007887
C      6.23373      6.23373      0.13007         0.160725      0.144931     -0.012802
C      3.19606      3.19606      0.08601         0.248932      0.262153     -0.019686
C      4.25547      4.25547      0.13007        -0.105263     -0.051155      0.016680
C      7.29314      3.19606     10.40319        -0.365025      0.675375      0.010191
C      6.23373      4.25547     10.35913         1.111686      0.027139      0.014869
O     10.43466      3.58206      8.50569        -0.029775      0.057204      0.447242
O     10.54374     17.39634      8.50569        -0.004406     -0.087927      0.434086
O     10.54374      3.58206     12.47271         0.044133     -0.097635     -0.137131
O     10.43466     17.39634     12.47271        -0.057527     -0.050360     -0.474470
O      8.50569     10.43466      3.58206         0.308127     -0.032721     -0.044178
O      8.50569     10.54374     17.39634         0.681063      0.026417     -0.171085
O     12.47271     10.54374      3.58206        -0.739710     -0.035966      0.141300
O     12.47271     10.43466     17.39634        -0.423754     -0.026833     -0.033728
O      3.58206      8.50569     10.43466         0.141581      1.082990     -0.005295
O     17.39634      8.50569     10.54374        -0.086457      0.413610      0.063976
O      3.58206     12.47271     10.54374         0.068343     -0.411586      0.039855
O     17.39634     12.47271     10.43466        -0.162023     -0.695083      0.002436
O      3.58206     10.43466      8.50569         0.030993     -0.072305      0.672272
O     17.39634     10.54374      8.50569        -0.067866      0.044056      0.341380
O      3.58206     10.54374     12.47271        -0.008718      0.026255     -0.299339
O     17.39634     10.43466     12.47271        -0.245787      0.017322     -0.736032
O     10.43466      8.50569      3.58206         0.113151      0.831560      0.197154
O     10.54374      8.50569     17.39634         0.036294      0.672777     -0.162186
O     10.54374     12.47271      3.58206        -0.011714     -1.017086      0.198566
O     10.43466     12.47271     17.39634        -0.028304     -0.887856     -0.197017
O      8.50569      3.58206     10.43466         0.528408      0.105857     -0.017863
O      8.50569     17.39634     10.54374         0.526065     -0.207113     -0.013386
O     12.47271      3.58206     10.54374        -0.466183      0.155524      0.056838
O     12.47271     17.39634     10.43466        -0.386308      0.038055     -0.009028
O     11.90042     11.90042     19.56718        -0.273850     -0.324830      0.260156
O     19.56718     19.56718     19.56718         0.281891      0.285059      0.287019
O     19.56718     11.90042     11.90042         0.292171     -0.302735     -0.199184
O     11.90042     19.56718     11.90042        -0.269952      0.280099     -0.246649
O      9.45224      1.03696      9.45224        -0.084876      0.053849     -0.054361
O      1.03696      9.45224      9.45224         0.035265     -0.170505     -0.113033
O      1.03696      1.03696      1.03696         0.007057      0.116770      0.212106
O      9.45224      9.45224      1.03696        -0.062563     -0.087553      0.131137
Zr     10.48920      2.52580     10.48920        -0.028663     -0.121076     -0.173750
Zr     10.48920     18.45260     10.48920         0.019933      0.231326     -0.030214
Zr     10.48920     10.48920      2.52580        -0.101200     -0.181847     -0.542615
Zr     10.48920     10.48920     18.45260        -0.038773      0.034480      0.465510
Zr      2.52580     10.48920     10.48920        -0.368090      0.306580      0.114299
Zr     18.45260     10.48920     10.48920         0.203718      0.040338     -0.243485
Pd      8.54902      9.89955     13.22830        -0.019915     -0.027655      0.020118
Pd     10.52788      9.50756     10.26089         0.052416     -0.011540     -0.048817
Pd     13.33167      8.72966     12.47324        -0.057592     -0.005025      0.018574
Pd     10.43906     10.64952     15.08651        -0.024326      0.026973     -0.009116
Pd     12.95927     11.35378     13.47835         0.009911     -0.006215      0.020518
Pd     14.93520     10.69681     11.30596        -0.005172      0.019422      0.014174
Pd      6.83982      7.82419     12.48954         0.001915     -0.047808     -0.016956
Pd      9.22060      7.24187      9.56873         0.009368     -0.030627     -0.031179
Pd      9.52133      7.56228     12.29551        -0.076936     -0.044413      0.007740
Pd     11.74342      7.17983     10.93363         0.041624      0.016097     -0.038523
Pd     11.60319      7.85906      8.33962         0.016421     -0.009944      0.003728
Pd      7.16090     11.74565     11.61199        -0.010477     -0.021590      0.004163
Pd      9.20928     14.33478      9.35308         0.029763     -0.026470     -0.017572
Pd      8.14156     12.39209     14.19137         0.029160      0.004526     -0.017948
Pd     14.16022     14.21048      8.35399         0.040104      0.016323     -0.030171
Pd     11.67004     13.34481      8.82841        -0.004503     -0.032868     -0.038004
Pd     14.09947     11.63545      8.95941        -0.023486     -0.002500      0.031763
Pd      8.74196     13.94028     12.13499        -0.004302      0.011394     -0.032905
Pd     12.19875     13.92535     13.97583         0.017612     -0.004997     -0.013582
Pd     11.37581     14.09762     11.36147         0.013263      0.022653     -0.000490
Pd     14.01331     13.40960     12.08959         0.024199     -0.019133      0.039838
Pd     12.31040     11.58703     10.89704        -0.007927     -0.020093     -0.037358
Pd     12.92371     12.62064      6.61141        -0.028194      0.022942     -0.014312
Pd     13.92297      8.86487      7.58316        -0.011401      0.004175      0.020294
Pd      6.96252      8.47926      8.48764         0.009804     -0.011101      0.005605
Pd      5.55355     10.04047     10.21074         0.016594     -0.012299     -0.042845
Pd      9.36631      9.48459      7.54398         0.036060      0.009976      0.014794
Pd      8.50015      7.00656      6.96629        -0.006452     -0.021547     -0.021760
Pd      9.66045     11.94829     10.57383         0.027379     -0.000832     -0.046841
Pd     11.76236     10.64937      8.08636        -0.034529     -0.016488      0.014757
Pd     11.72814      8.96980      5.90703        -0.004559      0.023366     -0.000267
Pd     10.49538     11.34733      5.77630         0.028324     -0.016878      0.029254
Ir     11.02496      9.67186     12.73870         0.019716      0.067648      0.012536
Ir     13.17410      9.30507      9.97646        -0.013849     -0.027473     -0.017005
Ir     10.50763     12.12780     12.94305        -0.030085     -0.018769     -0.009494
Ir      7.70165     11.02858      9.12244         0.014677     -0.077636      0.007308
Ir      9.51340     12.09405      8.00904         0.046000      0.072015      0.058030
Ir      8.05624      9.25963     10.79603        -0.069204      0.071873     -0.082045
