152
# total energy = -1092.44182277 eVH     10.35389      5.87395      7.64558         0.721060     -0.429986      1.481766
H     10.62451     15.10445      7.64558        -0.753275      0.696096      1.911715
H     10.62451      5.87395     13.33282         0.363865     -0.165137     -1.645123
H     10.35389     15.10445     13.33282        -0.611759      0.320641     -1.802683
H      7.64558     10.35389      5.87395         0.381038     -0.025532     -0.009174
H      7.64558     10.62451     15.10445         0.455948     -0.057175      0.030557
H     13.33282     10.62451      5.87395        -0.509494      0.001305      0.088577
H     13.33282     10.35389     15.10445        -0.470455      0.117523      0.024730
H      5.87395      7.64558     10.35389         0.046256      1.359014     -0.145782
H     15.10445      7.64558     10.62451        -0.012763      0.677412      0.003115
H      5.87395     13.33282     10.62451        -0.062828     -0.502258      0.013912
H     15.10445     13.33282     10.35389         0.275516     -1.621563      0.186721
H      5.87395     10.35389      7.64558        -0.326261     -0.332655      0.033911
H     15.10445     10.62451      7.64558         0.341310      0.295683     -0.004353
H      5.87395     10.62451     13.33282        -0.175645      0.000292      0.000010
H     15.10445     10.35389     13.33282         0.080246     -0.153523      0.029986
H     10.35389      7.64558      5.87395        -0.221884      0.455586     -0.061514
H     10.62451      7.64558     15.10445         0.096830      0.551980      0.288473
H     10.62451     13.33282      5.87395        -0.118835     -0.917414     -0.202754
H     10.35389     13.33282     15.10445        -0.223860     -0.669994      0.285269
H      7.64558      5.87395     10.35389         0.405135     -0.041718     -0.123315
H      7.64558     15.10445     10.62451         0.448027      0.009823     -0.126572
H     13.33282      5.87395     10.62451        -0.372133     -0.013976      0.043086
H     13.33282     15.10445     10.35389        -0.447863      0.194470     -0.060259
H     12.45634     12.45634     19.01126         0.258722      0.249236     -0.243672
H     19.01126     19.01126     19.01126        -0.256266     -0.246590     -0.248352
H     19.01126     12.45634     12.45634        -0.255632      0.266235      0.234063
H     12.45634     19.01126     12.45634         0.262629     -0.263785      0.229449
C     10.35284      5.61067      6.59456        -0.512217     -0.127110     -1.754138
C     10.62556     15.36773      6.59456         0.473729      0.073289     -2.049117
C     10.62556      5.61067     14.38384        -0.435878     -0.033881      1.750187
C     10.35284     15.36773     14.38384         0.424307      0.125388      1.978746
C      6.59456     10.35284      5.61067        -0.638411     -0.018679     -0.276295
C      6.59456     10.62556     15.36773        -0.875952     -0.045575      0.123357
C     14.38384     10.62556      5.61067         0.750937      0.003112     -0.113815
C     14.38384     10.35284     15.36773         0.772571      0.017132      0.217176
C      5.61067      6.59456     10.35284        -0.075780     -0.921580      0.089077
C     15.36773      6.59456     10.62556         0.159202     -1.049934     -0.006385
C      5.61067     14.38384     10.62556        -0.215982      0.885948      0.010704
C     15.36773     14.38384     10.35284         0.078507      1.352624      0.005511
C      5.61067     10.35284      6.59456        -0.739460      0.029705     -1.997051
C     15.36773     10.62556      6.59456         0.692905     -0.022315     -2.046367
C      5.61067     10.62556     14.38384        -0.788431      0.014400      1.921019
C     15.36773     10.35284     14.38384         0.600580     -0.081704      1.566375
C     10.35284      6.59456      5.61067         0.058512     -1.456362     -0.766825
C     10.62556      6.59456     15.36773        -0.026543     -1.645270      0.972752
C     10.62556     14.38384      5.61067         0.017791      1.809497     -0.963900
C     10.35284     14.38384     15.36773        -0.053647      1.788074      1.007073
C      6.59456      5.61067     10.35284        -0.434583     -0.922250     -0.157212
C      6.59456     15.36773     10.62556        -1.395020      0.737092      0.082540
C     14.38384      5.61067     10.62556         1.297810     -0.727927      0.013258
C     14.38384     15.36773     10.35284         0.392533      1.072313      0.002718
C     10.40319      3.19606      7.29314         0.010385      0.550604     -0.406983
C     10.35913      4.25547      6.23373         0.029003     -0.838738      0.523316
C      0.08601      7.29314      7.29314         0.019681     -0.481539     -0.449106
C      0.13007      6.23373      6.23373        -0.011671      0.913615      0.561218
C      0.08601      3.19606      3.19606        -0.009802      0.580904      0.362075
C      0.13007      4.25547      4.25547        -0.028291     -0.949847     -0.469794
C     10.40319      7.29314      3.19606         0.053816     -0.499883      0.409952
C     10.35913      6.23373      4.25547         0.072685      0.717079     -0.521844
C      7.29314     10.40319      3.19606        -0.305860      0.001474      0.580918
C      6.23373     10.35913      4.25547         0.204510     -0.050514     -0.287095
C      7.29314      0.08601      7.29314        -0.270976      0.001659     -0.432466
C      6.23373      0.13007      6.23373         0.107659     -0.033868      0.448848
C      3.19606      0.08601      3.19606         0.306534      0.005787      0.567264
C      4.25547      0.13007      4.25547        -0.178977      0.050356     -0.332555
C      3.19606     10.40319      7.29314         0.285280      0.008252     -0.549017
C      4.25547     10.35913      6.23373        -0.221814      0.054303      0.560595
C      3.19606      7.29314     10.40319         0.236948     -0.408310     -0.001593
C      4.25547      6.23373     10.35913        -0.668998      0.322320      0.046639
C      7.29314      7.29314      0.08601        -0.513775     -0.259213      0.001942
C      6.23373      6.23373      0.13007         0.080305      0.297205     -0.027708
C      3.19606      3.19606      0.08601         0.452950      0.293755     -0.015596
C      4.25547      4.25547      0.13007        -0.055944     -0.183569     -0.024971
C      7.29314      3.19606     10.40319        -0.289212      0.526401     -0.018350
C      6.23373      4.25547     10.35913         0.786640     -0.408375      0.048720
O     10.43466      3.58206      8.50569        -0.010717      0.195281      0.398402
O     10.54374     17.39634      8.50569        -0.017456     -0.218840      0.422816
O     10.54374      3.58206     12.47271         0.071821      0.173337     -0.348187
O     10.43466     17.39634     12.47271        -0.116536     -0.207690     -0.356920
O      8.50569     10.43466      3.58206         0.418467     -0.026169      0.097991
O      8.50569     10.54374     17.39634         0.434573      0.054229     -0.127556
O     12.47271     10.54374      3.58206        -0.411939     -0.001218      0.097294
O     12.47271     10.43466     17.39634        -0.432049     -0.052876     -0.121877
O      3.58206      8.50569     10.43466         0.161253      0.456862     -0.048043
O     17.39634      8.50569     10.54374        -0.087571      0.449688      0.031519
O      3.58206     12.47271     10.54374         0.073795     -0.441934      0.048331
O     17.39634     12.47271     10.43466        -0.219186     -0.558743     -0.003617
O      3.58206     10.43466      8.50569         0.203585     -0.007111      0.504957
O     17.39634     10.54374      8.50569        -0.161143     -0.003012      0.475775
O      3.58206     10.54374     12.47271         0.267896      0.059519     -0.512675
O     17.39634     10.43466     12.47271        -0.207502     -0.015575     -0.563402
O     10.43466      8.50569      3.58206         0.030611      0.541581      0.263513
O     10.54374      8.50569     17.39634         0.065841      0.545076     -0.250270
O     10.54374     12.47271      3.58206        -0.003209     -0.629119      0.276554
O     10.43466     12.47271     17.39634        -0.038628     -0.576312     -0.264056
O      8.50569      3.58206     10.43466         0.537432      0.141068     -0.034397
O      8.50569     17.39634     10.54374         0.580311     -0.161237      0.045374
O     12.47271      3.58206     10.54374        -0.567123      0.171395     -0.001122
O     12.47271     17.39634     10.43466        -0.514135     -0.165459     -0.016945
O     11.90042     11.90042     19.56718        -0.296852     -0.296112      0.263367
O     19.56718     19.56718     19.56718         0.301105      0.285308      0.276874
O     19.56718     11.90042     11.90042         0.308836     -0.323110     -0.253759
O     11.90042     19.56718     11.90042        -0.306364      0.301813     -0.239847
O      9.45224      1.03696      9.45224        -0.047947      0.038167     -0.081513
O      1.03696      9.45224      9.45224         0.045769     -0.058195     -0.070734
O      1.03696      1.03696      1.03696         0.057608      0.037604      0.112964
O      9.45224      9.45224      1.03696        -0.043658     -0.069485      0.107774
Zr     10.48920      2.52580     10.48920        -0.126545     -0.082096      0.018705
Zr     10.48920     18.45260     10.48920         0.122167      0.146117     -0.073417
Zr     10.48920     10.48920      2.52580        -0.027958      0.059055     -0.270084
Zr     10.48920     10.48920     18.45260        -0.006899     -0.026406      0.182943
Zr      2.52580     10.48920     10.48920        -0.088650     -0.030432     -0.076616
Zr     18.45260     10.48920     10.48920         0.157209      0.073162     -0.077255
Pd     13.21854      8.28259      7.91170        -0.055647      0.060115     -0.091920
Pd      9.17172     14.47268     11.87847         0.022915     -0.103170     -0.128546
Pd     12.23936     11.15197     10.53496         0.235017     -0.160027     -0.055430
Pd     14.60493     10.63532     11.69528         0.123008     -0.085118     -0.023808
Pd     11.08158      9.25491      6.41244         0.078373     -0.049832     -0.154386
Pd      6.83535      8.03455      8.49651         0.086935      0.091739      0.161052
Ir     10.08560     11.85768     11.83556        -0.144419      0.065208      0.220544
Ir     13.11672      8.58014     10.55467        -0.099065      0.068579     -0.041470
Ir     12.22937     11.13086      7.89481        -0.030069     -0.063346     -0.250098
Ir      9.28596     14.25263      9.15813        -0.056746      0.018308      0.213431
Ir     10.86353      9.30179     11.80993        -0.078848      0.071824     -0.119443
Ir      8.74604      9.81123      7.86564        -0.155228      0.120614      0.151534
Ir     13.66699     12.84985      9.11371         0.060743      0.083698     -0.038310
Ir     11.62846     13.61858      7.86578         0.234841     -0.056243     -0.024158
Ir     14.33918     10.36216      9.19605        -0.029332     -0.339669      0.039818
Ir      9.44229      7.32592     10.59542         0.141441      0.008143     -0.199514
Ir      7.95201     12.40901      7.86785        -0.069421      0.015068     -0.066034
Ir      9.36217      7.41457      8.04987        -0.012436      0.112029      0.037335
Ir     11.57615     13.68644     13.14694         0.109169     -0.154406     -0.138194
Ir     11.70927      6.92109     11.99482        -0.024815     -0.270006     -0.179962
Ir     10.05040     11.75329      9.20138        -0.012673     -0.411856     -0.199225
Ir     13.15323      8.60450     13.16590         0.115530      0.052208      0.108490
Ir     10.93317      9.17774      9.14745         0.047920      0.020514      0.006898
Ir     11.40506     13.72141     10.46017         0.269602      0.198593      0.046887
Ir     13.55755     13.11256     11.88426         0.021300     -0.112503     -0.044313
Ir     12.30605     11.20346     13.17788         0.050156      0.081294      0.060284
Ir     10.05150     11.64585      6.59486        -0.036632     -0.264674      0.011444
Ir     11.62042      6.73123      9.45580         0.037453     -0.175077     -0.148463
Ir      7.26947      8.02888     11.87694         0.051478      0.037501      0.058295
Ir      7.93171     12.48346     10.48479         0.082348      0.161118      0.169691
Ir     11.00215      9.31303     14.33781        -0.098951      0.079576      0.185631
Ir      7.89587     12.31259     13.05106        -0.138184      0.021336      0.184692
Ir      6.58339     10.65424      9.23666         0.033795      0.000611     -0.025641
Ir      8.68483      9.82473     13.18312         0.112991      0.137263     -0.118210
Ir      6.50671     10.51568     11.63732         0.022798      0.056396      0.107734
Ir      9.20791      7.28104     13.17634         0.068107     -0.014944      0.148205
Ir     10.04744     11.62971     14.42112        -0.205611     -0.047139     -0.125998
Ir      8.67839      9.81452     10.50477         0.199756      0.148308      0.032716
