10
# total energy = -65.09964257 eVH      2.09355      1.08429      7.50000         0.094526      0.048957      0.000000
H      3.43079      1.77687      7.50000        -0.094526     -0.048957     -0.000000
C      4.38454      2.27084      7.50000         0.135557      0.070208      0.000000
C      1.13980      0.59033      7.50000        -0.135557     -0.070208     -0.000000
N      0.07013      1.38316      7.50000         0.006812     -0.041105      0.000000
N      5.45421      1.47800      7.50000        -0.006812      0.041105     -0.000000
N      1.17016     -0.74079      7.50000        -0.029642      0.029281      0.000000
N      4.35418      3.60196      7.50000         0.029642     -0.029281     -0.000000
Pd      2.76217     -1.95131      7.50000         0.000000      0.000000      0.000000
Pd      0.00000      3.38190      7.50000         0.000000      0.000000      0.000000
