152
# total energy = -1004.38159315 eVH     10.35389      5.87395      7.64558        -0.108416      0.151063      0.647276
H     10.62451     15.10445      7.64558        -0.211369     -0.158603      0.593365
H     10.62451      5.87395     13.33282         0.412618      0.034566     -0.882721
H     10.35389     15.10445     13.33282         0.059961     -0.180328     -0.519275
H      7.64558     10.35389      5.87395         0.366730      0.047421      0.146415
H      7.64558     10.62451     15.10445         0.845234      0.585701      0.009264
H     13.33282     10.62451      5.87395        -0.447180      0.018870      0.211623
H     13.33282     10.35389     15.10445        -0.801997     -0.227769      0.032602
H      5.87395      7.64558     10.35389         0.134150      1.749016      0.100613
H     15.10445      7.64558     10.62451        -0.075783      0.498899      0.241085
H      5.87395     13.33282     10.62451         0.205915     -0.585186     -0.012809
H     15.10445     13.33282     10.35389         0.227727     -1.373760     -0.449769
H      5.87395     10.35389      7.64558         0.135069      0.036014      0.512485
H     15.10445     10.62451      7.64558        -0.206432      0.939584      1.437867
H      5.87395     10.62451     13.33282        -0.066137      0.575522     -1.313712
H     15.10445     10.35389     13.33282         0.111096     -0.206041     -0.785658
H     10.35389      7.64558      5.87395         0.344320      1.289064      0.148212
H     10.62451      7.64558     15.10445         0.533553      0.780641     -0.087560
H     10.62451     13.33282      5.87395        -0.549562     -0.730732      0.292489
H     10.35389     13.33282     15.10445        -0.236337     -0.515577     -0.331034
H      7.64558      5.87395     10.35389         1.207495     -0.262497     -0.089026
H      7.64558     15.10445     10.62451         0.822520     -0.197930     -0.036800
H     13.33282      5.87395     10.62451        -0.596478      0.115444      0.660934
H     13.33282     15.10445     10.35389        -0.476663     -0.022775     -0.197949
H     12.45634     12.45634     19.01126         0.269567      0.250553     -0.231358
H     19.01126     19.01126     19.01126        -0.266185     -0.267523     -0.220178
H     19.01126     12.45634     12.45634        -0.277937      0.253963      0.229140
H     12.45634     19.01126     12.45634         0.246471     -0.281327      0.236546
C     10.35284      5.61067      6.59456        -0.138917     -0.794574     -0.439316
C     10.62556     15.36773      6.59456         0.115687      0.274559     -0.220431
C     10.62556      5.61067     14.38384        -0.046890     -0.496259      0.567587
C     10.35284     15.36773     14.38384         0.009168      0.242204      0.501257
C      6.59456     10.35284      5.61067        -0.499777      0.051668     -0.346444
C      6.59456     10.62556     15.36773        -0.951635      0.211988      0.724826
C     14.38384     10.62556      5.61067         0.728429      0.036566     -0.959442
C     14.38384     10.35284     15.36773         0.919432     -0.123480      0.403092
C      5.61067      6.59456     10.35284        -0.926708     -1.059447     -0.534571
C     15.36773      6.59456     10.62556         0.718204     -0.008609     -0.236365
C      5.61067     14.38384     10.62556        -0.241230      0.643610      0.014483
C     15.36773     14.38384     10.35284         0.300235      1.359829      0.042194
C      5.61067     10.35284      6.59456        -0.270723      0.012622     -0.679634
C     15.36773     10.62556      6.59456         0.455402     -0.388158     -1.039535
C      5.61067     10.62556     14.38384        -0.428899     -0.013878      1.009589
C     15.36773     10.35284     14.38384         0.464259     -0.065613      0.921045
C     10.35284      6.59456      5.61067        -0.113288     -0.951754     -0.380300
C     10.62556      6.59456     15.36773         0.088915     -0.719128      0.507270
C     10.62556     14.38384      5.61067         0.151973      1.037806     -0.375945
C     10.35284     14.38384     15.36773        -0.019312      1.019575      0.492429
C      6.59456      5.61067     10.35284        -0.603034     -1.270101      0.065482
C      6.59456     15.36773     10.62556        -0.957847      0.168522      0.113272
C     14.38384      5.61067     10.62556        -0.140218     -0.502814     -0.309211
C     14.38384     15.36773     10.35284         0.214099      0.622315     -0.075719
C     10.40319      3.19606      7.29314         0.003704      0.827394     -0.578514
C     10.35913      4.25547      6.23373         0.028113     -0.530321      0.131444
C      0.08601      7.29314      7.29314        -0.024381     -0.982626     -0.238656
C      0.13007      6.23373      6.23373        -0.070752      0.394662      0.333423
C      0.08601      3.19606      3.19606         0.052412      1.283887      0.152053
C      0.13007      4.25547      4.25547        -0.017543     -0.334284     -0.436776
C     10.40319      7.29314      3.19606        -0.011149     -0.529498      0.247264
C     10.35913      6.23373      4.25547        -0.022935      0.127304     -0.704428
C      7.29314     10.40319      3.19606        -0.344617      0.024337      0.399496
C      6.23373     10.35913      4.25547         0.222689      0.087171     -0.100580
C      7.29314      0.08601      7.29314        -1.045218     -0.087080     -0.400335
C      6.23373      0.13007      6.23373         0.653055     -0.188706      0.418051
C      3.19606      0.08601      3.19606         1.164762     -0.019758      0.340173
C      4.25547      0.13007      4.25547        -0.634436     -0.157664     -0.196012
C      3.19606     10.40319      7.29314         0.555007      0.030562     -0.295368
C      4.25547     10.35913      6.23373        -0.239052      0.099079      0.215050
C      3.19606      7.29314     10.40319         0.325880     -0.733914      0.039371
C      4.25547      6.23373     10.35913        -1.083206      0.089170      0.182400
C      7.29314      7.29314      0.08601        -0.479769     -0.501219     -0.016640
C      6.23373      6.23373      0.13007         0.494317      0.319652      0.018511
C      3.19606      3.19606      0.08601         0.560017      0.416534     -0.021013
C      4.25547      4.25547      0.13007        -0.038316     -0.752767     -0.104350
C      7.29314      3.19606     10.40319        -0.394918      0.505996      0.054269
C      6.23373      4.25547     10.35913         0.568605     -0.735587      0.202759
O     10.43466      3.58206      8.50569         0.014080      0.112437      0.532492
O     10.54374     17.39634      8.50569         0.052791     -0.030392      0.288303
O     10.54374      3.58206     12.47271        -0.003242     -0.073464     -0.154951
O     10.43466     17.39634     12.47271        -0.037298     -0.120581     -0.442317
O      8.50569     10.43466      3.58206         0.469036     -0.032169      0.089720
O      8.50569     10.54374     17.39634         0.834033     -0.066252     -0.168222
O     12.47271     10.54374      3.58206        -0.873743      0.131588      0.108237
O     12.47271     10.43466     17.39634        -0.610305      0.024731     -0.164444
O      3.58206      8.50569     10.43466         0.186944      0.786560     -0.020100
O     17.39634      8.50569     10.54374        -0.148745      0.675913      0.028941
O      3.58206     12.47271     10.54374         0.109089     -0.552323      0.053657
O     17.39634     12.47271     10.43466        -0.168555     -0.604923     -0.045551
O      3.58206     10.43466      8.50569         0.082898     -0.049735      0.425040
O     17.39634     10.54374      8.50569         0.038651      0.093794      0.380530
O      3.58206     10.54374     12.47271        -0.017252      0.028466     -0.275214
O     17.39634     10.43466     12.47271        -0.155643     -0.031497     -0.562372
O     10.43466      8.50569      3.58206        -0.028180      0.615189      0.170698
O     10.54374      8.50569     17.39634        -0.096722      0.804226     -0.217755
O     10.54374     12.47271      3.58206         0.108599     -0.956251      0.160622
O     10.43466     12.47271     17.39634         0.060720     -0.678902     -0.167200
O      8.50569      3.58206     10.43466         0.569773      0.140223     -0.046755
O      8.50569     17.39634     10.54374         0.560801     -0.150572      0.010523
O     12.47271      3.58206     10.54374        -0.705410      0.151572      0.017934
O     12.47271     17.39634     10.43466        -0.466815     -0.084303     -0.032472
O     11.90042     11.90042     19.56718        -0.323117     -0.284024      0.245896
O     19.56718     19.56718     19.56718         0.297678      0.315157      0.214760
O     19.56718     11.90042     11.90042         0.342697     -0.277060     -0.239682
O     11.90042     19.56718     11.90042        -0.269801      0.350507     -0.244802
O      9.45224      1.03696      9.45224        -0.028488      0.085081     -0.128745
O      1.03696      9.45224      9.45224         0.062601     -0.030055     -0.121641
O      1.03696      1.03696      1.03696         0.069278      0.095152      0.098926
O      9.45224      9.45224      1.03696        -0.045648     -0.035396      0.081663
Zr     10.48920      2.52580     10.48920        -0.068640     -0.205918      0.063077
Zr     10.48920     18.45260     10.48920         0.019183      0.064079      0.126918
Zr     10.48920     10.48920      2.52580        -0.317260     -0.354919     -0.372357
Zr     10.48920     10.48920     18.45260         0.143093      0.005211      0.396299
Zr      2.52580     10.48920     10.48920        -0.176479      0.037204     -0.055595
Zr     18.45260     10.48920     10.48920         0.167163     -0.013755      0.078355
Pd     12.94439      8.43829      9.86263         0.009062      0.080572     -0.071639
Pd      6.41763      9.54431     10.34092        -0.022619      0.113071     -0.026656
Pd      6.97409     11.63750     11.79813        -0.066075      0.002854     -0.017115
Pd     12.36262     13.47126      7.24266        -0.038490     -0.141812      0.000742
Pd     12.13150      7.90199      7.18347         0.016643     -0.059400     -0.056033
Pd      8.49644      7.31262      6.86252        -0.049951     -0.009791      0.074734
Pd     11.43826     11.50145      5.62703        -0.025923     -0.024279      0.005412
Pd     14.55780      8.85808      7.79607        -0.044827     -0.028677     -0.103274
Pd      9.86248     11.79184      7.94845         0.005977      0.039055      0.009415
Pd      7.06358      7.13635     11.99754         0.030575      0.016964      0.041890
Pd      6.36246      7.51196      8.39703         0.041842      0.018410      0.066483
Pd      7.24154      9.20540     13.53295         0.006042     -0.027921      0.071860
Pd     11.39646      6.28748      9.24509         0.020803     -0.040860     -0.070071
Pd     10.01232      9.54516      6.50009        -0.054215     -0.025092      0.051633
Pd      9.07522     13.96542      9.38152        -0.005311      0.052041     -0.020804
Pd     10.89612      7.41358     11.50132        -0.031154     -0.044782     -0.000653
Pd     10.46096      9.07372      9.22879        -0.100878     -0.023528     -0.012063
Pd      9.43482     11.55442     10.56267         0.068675     -0.021656      0.015628
Pd      8.82460      7.11770      9.57399         0.102525     -0.007149     -0.009100
Pd      9.15981      7.40576     13.53427        -0.027975     -0.030192     -0.023423
Pd      8.81465      9.18999     11.37190        -0.026098     -0.025276      0.002381
Pd     12.25337     10.53399      7.95560         0.037492     -0.014787      0.005713
Pd      7.22978     11.93733      9.13215         0.012065      0.029742      0.018991
Pd      8.10847      9.60412      8.31747        -0.016686      0.013879     -0.013971
Pd     14.01511      6.36617      8.51218        -0.018018      0.043688     -0.006188
Pd     13.26455      8.45085     12.45005        -0.095981      0.066624     -0.030800
Pd      9.05764     11.41328     13.32386         0.038907      0.028417      0.010361
Pd     13.97498     12.18919      8.89631        -0.053803     -0.022561      0.114046
Pd     13.18314     11.10926     13.13774         0.029833      0.009619     -0.010131
Pd     14.58881     10.35429     10.78295        -0.052494      0.002976      0.054331
Pd     11.94795     10.72478     10.74587         0.022857      0.002804     -0.048681
Pd     11.55855     13.17544      9.70633        -0.041865      0.008639      0.061588
Pd     13.65042     13.02697     11.49983        -0.039721      0.023998      0.038173
Pd     11.15744     12.78451     12.36605         0.034635     -0.011478     -0.040543
Pd     11.24370     11.59001     14.86114        -0.046102     -0.059049      0.018687
Pd     10.96295      9.62506     12.95900        -0.010363     -0.055986      0.039910
Pd      9.50252      9.55289     15.22410         0.052628      0.018073      0.017922
Pd      8.70660     13.76763     12.04419         0.038680     -0.037794     -0.020443
