152
# total energy = -1060.16052817 eVH     10.35389      5.87395      7.64558        -0.312682      0.101612      1.085373
H     10.62451     15.10445      7.64558         0.089065     -0.070120      0.892906
H     10.62451      5.87395     13.33282        -0.271814      0.073468     -0.784072
H     10.35389     15.10445     13.33282         0.097765     -0.302459     -0.824015
H      7.64558     10.35389      5.87395         0.894561     -0.204492      0.206861
H      7.64558     10.62451     15.10445         0.314762     -0.027141     -0.062901
H     13.33282     10.62451      5.87395        -0.885636      0.219194      0.220753
H     13.33282     10.35389     15.10445        -0.282890     -0.030004     -0.059762
H      5.87395      7.64558     10.35389         0.092913      0.422612     -0.010252
H     15.10445      7.64558     10.62451        -0.044017      0.436620     -0.029740
H      5.87395     13.33282     10.62451        -0.016417     -0.968374      0.078771
H     15.10445     13.33282     10.35389        -0.086384     -0.328401      0.001525
H      5.87395     10.35389      7.64558         0.317780      0.061958      0.371671
H     15.10445     10.62451      7.64558        -0.119054     -0.157923      0.668030
H      5.87395     10.62451     13.33282        -0.063795      0.452213     -0.603724
H     15.10445     10.35389     13.33282         0.228495     -0.635775     -0.881629
H     10.35389      7.64558      5.87395        -0.020177      0.499530      0.345055
H     10.62451      7.64558     15.10445         0.329243      0.787515     -0.008203
H     10.62451     13.33282      5.87395         0.149865     -0.568829      0.202742
H     10.35389     13.33282     15.10445         0.033133     -0.289869     -0.165819
H      7.64558      5.87395     10.35389         0.369936      0.113836      0.063419
H      7.64558     15.10445     10.62451         0.389210     -0.127990      0.179059
H     13.33282      5.87395     10.62451        -0.307215      0.137477     -0.014385
H     13.33282     15.10445     10.35389        -0.658404     -0.108020      0.137838
H     12.45634     12.45634     19.01126         0.259066      0.272414     -0.225930
H     19.01126     19.01126     19.01126        -0.248260     -0.267189     -0.244186
H     19.01126     12.45634     12.45634        -0.249070      0.271666      0.236865
H     12.45634     19.01126     12.45634         0.290011     -0.234993      0.235522
C     10.35284      5.61067      6.59456         0.400624     -0.417662     -1.356790
C     10.62556     15.36773      6.59456        -0.172537      0.609405     -0.660531
C     10.62556      5.61067     14.38384         0.365934     -0.273725      0.779947
C     10.35284     15.36773     14.38384        -0.206084      0.221947      1.027794
C      6.59456     10.35284      5.61067        -1.395357      0.032161     -0.227512
C      6.59456     10.62556     15.36773        -0.663841      0.065192      0.356748
C     14.38384     10.62556      5.61067         1.312620     -0.186162     -0.630909
C     14.38384     10.35284     15.36773         0.318323     -0.133133      0.354826
C      5.61067      6.59456     10.35284        -0.273958     -0.672806     -0.030638
C     15.36773      6.59456     10.62556         0.409898     -0.855689      0.028150
C      5.61067     14.38384     10.62556        -0.148944      1.194047     -0.216981
C     15.36773     14.38384     10.35284         0.502005      0.706502     -0.037214
C      5.61067     10.35284      6.59456        -0.370378     -0.103008     -0.773173
C     15.36773     10.62556      6.59456         0.401497      0.107153     -0.678874
C      5.61067     10.62556     14.38384        -0.404634     -0.163192      1.219907
C     15.36773     10.35284     14.38384         0.229156      0.226860      1.414849
C     10.35284      6.59456      5.61067        -0.069475     -0.745889     -0.545424
C     10.62556      6.59456     15.36773        -0.141081     -0.978834      0.375207
C     10.62556     14.38384      5.61067        -0.494638      0.385513     -0.738650
C     10.35284     14.38384     15.36773        -0.173550      0.732736      0.492167
C      6.59456      5.61067     10.35284        -0.562388     -0.337302      0.003654
C      6.59456     15.36773     10.62556        -0.364092      0.445329      0.065859
C     14.38384      5.61067     10.62556         0.435100     -0.310262      0.007811
C     14.38384     15.36773     10.35284         1.129635      0.484105     -0.079511
C     10.40319      3.19606      7.29314        -0.008099      0.791510     -0.338639
C     10.35913      4.25547      6.23373         0.023926     -0.378195      0.292393
C      0.08601      7.29314      7.29314        -0.018309     -0.382462     -0.504729
C      0.13007      6.23373      6.23373        -0.047329      0.876727      0.093034
C      0.08601      3.19606      3.19606        -0.006897      0.696620      0.259744
C      0.13007      4.25547      4.25547         0.046831     -0.266858     -0.548344
C     10.40319      7.29314      3.19606        -0.063937     -1.114150      0.626207
C     10.35913      6.23373      4.25547        -0.047608      0.348175     -0.204052
C      7.29314     10.40319      3.19606        -1.092601     -0.054772      0.201958
C      6.23373     10.35913      4.25547         0.380084      0.101990     -0.524074
C      7.29314      0.08601      7.29314        -0.483325      0.028797     -0.438020
C      6.23373      0.13007      6.23373         0.179172      0.121250      0.119531
C      3.19606      0.08601      3.19606         0.702798      0.022971      0.170041
C      4.25547      0.13007      4.25547        -0.173180     -0.051105     -0.365767
C      3.19606     10.40319      7.29314         0.375985     -0.026916     -0.951465
C      4.25547     10.35913      6.23373        -0.129410     -0.054044      0.115155
C      3.19606      7.29314     10.40319         0.616491     -0.398785      0.002653
C      4.25547      6.23373     10.35913        -0.114791      0.178312      0.010980
C      7.29314      7.29314      0.08601        -0.429021     -0.293513     -0.015015
C      6.23373      6.23373      0.13007         0.147608      0.154216     -0.062766
C      3.19606      3.19606      0.08601         0.293717      0.492929     -0.024617
C      4.25547      4.25547      0.13007        -0.403723     -0.240665     -0.030692
C      7.29314      3.19606     10.40319        -0.283264      0.593483     -0.009378
C      6.23373      4.25547     10.35913         0.016190     -0.093252      0.015627
O     10.43466      3.58206      8.50569        -0.026481      0.071537      0.301343
O     10.54374     17.39634      8.50569         0.063692     -0.122613      0.590276
O     10.54374      3.58206     12.47271         0.028994      0.101727     -0.397623
O     10.43466     17.39634     12.47271         0.094458     -0.062857     -0.437066
O      8.50569     10.43466      3.58206         0.734451     -0.073286      0.017054
O      8.50569     10.54374     17.39634         0.541003      0.062827     -0.103989
O     12.47271     10.54374      3.58206        -0.657127      0.113150      0.210849
O     12.47271     10.43466     17.39634        -0.282535      0.004016      0.036548
O      3.58206      8.50569     10.43466         0.033645      0.444195     -0.063938
O     17.39634      8.50569     10.54374        -0.054286      0.446000      0.056649
O      3.58206     12.47271     10.54374         0.104907     -0.588588      0.003750
O     17.39634     12.47271     10.43466        -0.182222     -0.740168     -0.048251
O      3.58206     10.43466      8.50569         0.207659     -0.060679      0.805696
O     17.39634     10.54374      8.50569        -0.069666      0.070978      0.485035
O      3.58206     10.54374     12.47271        -0.004242     -0.004598     -0.261504
O     17.39634     10.43466     12.47271         0.034059     -0.009906     -0.233170
O     10.43466      8.50569      3.58206        -0.107794      0.532647     -0.100413
O     10.54374      8.50569     17.39634         0.060067      0.512245     -0.083697
O     10.54374     12.47271      3.58206         0.102961     -0.638086      0.128977
O     10.43466     12.47271     17.39634        -0.064980     -0.699211     -0.280937
O      8.50569      3.58206     10.43466         0.396501      0.023540     -0.046544
O      8.50569     17.39634     10.54374         0.639861     -0.154362      0.046243
O     12.47271      3.58206     10.54374        -0.516178      0.121081      0.028641
O     12.47271     17.39634     10.43466        -0.624459     -0.123807      0.041600
O     11.90042     11.90042     19.56718        -0.278251     -0.303464      0.222550
O     19.56718     19.56718     19.56718         0.309731      0.322219      0.298126
O     19.56718     11.90042     11.90042         0.283636     -0.325017     -0.235307
O     11.90042     19.56718     11.90042        -0.314417      0.229464     -0.201322
O      9.45224      1.03696      9.45224        -0.075803      0.089232     -0.077797
O      1.03696      9.45224      9.45224         0.102662     -0.110082     -0.060637
O      1.03696      1.03696      1.03696         0.078932      0.054726      0.098482
O      9.45224      9.45224      1.03696        -0.059097     -0.125164      0.136950
Zr     10.48920      2.52580     10.48920         0.042792     -0.095752      0.121947
Zr     10.48920     18.45260     10.48920        -0.181812      0.246793     -0.360746
Zr     10.48920     10.48920      2.52580         0.112962      0.356297     -0.345751
Zr     10.48920     10.48920     18.45260        -0.080961     -0.261065      0.235495
Zr      2.52580     10.48920     10.48920        -0.241392      0.129511      0.245477
Zr     18.45260     10.48920     10.48920         0.195847     -0.137714     -0.024378
Pd      9.36024     14.30378      9.30839         0.003463      0.028422     -0.024745
Pd      8.59378     13.64648     13.04447         0.010024      0.004187      0.017934
Pd     12.02509     14.40159      8.74669         0.009852     -0.010061      0.012850
Pd     12.75184     12.87795     10.68982        -0.032194     -0.004857      0.035254
Pd     12.11970      7.19027     12.67551         0.002642     -0.008257     -0.002581
Pd     11.15377     14.90726     11.44969        -0.018949      0.024506     -0.016649
Pd     10.03183     12.55761     11.08100        -0.031921      0.029011     -0.028500
Pd     13.48026     12.15415      7.98523         0.008406      0.006365      0.007680
Pd     11.48070     11.54479      6.10763         0.005626      0.010151     -0.004683
Pd      7.94143      8.37524      7.52282        -0.001787     -0.024864     -0.005519
Pd      8.71862     11.75750      6.84414        -0.006258      0.002467     -0.004567
Pd     10.31884      9.45219      8.15267        -0.015764     -0.000189      0.011231
Pd      8.49525     14.46441      6.78784        -0.007866      0.003936     -0.017722
Pd     12.39455      9.02163      6.57194        -0.007107      0.021747      0.030712
Pd      9.71803      9.61071      5.57408         0.004472      0.006153      0.004476
Pd      6.82088      9.45541     12.14251         0.018870      0.009358      0.006755
Pd     12.18033      6.74553      7.95458         0.011599      0.006946      0.006547
Pd      5.91275     10.48275      9.69537        -0.004348     -0.005744      0.007044
Pd      7.55042      7.23893     13.40670         0.000930     -0.006482     -0.011747
Ir     11.73192      9.77321     13.06782        -0.022445     -0.012629      0.005198
Ir     13.54950      9.05734     11.47671        -0.008914      0.004046      0.015349
Ir      9.42231      8.86624     14.01088        -0.017287      0.001825      0.000990
Ir     10.50648     11.00834     14.90069        -0.009351     -0.049488      0.058925
Ir      7.27046     12.01544     11.34119         0.000768     -0.004187      0.009494
Ir     14.64604     10.91559     10.15721        -0.006785      0.029673      0.032870
Ir     12.16154     10.57362      9.67818        -0.002454     -0.003638     -0.011850
Ir      8.75418     11.00699     12.99061         0.022749      0.018041     -0.011979
Ir     10.10453      9.91811     11.17021        -0.004137      0.008790     -0.016896
Ir     13.73035     11.41796     12.49762        -0.043515      0.007252      0.052159
Ir     11.57642     12.34764     13.09219        -0.078706     -0.031648      0.014854
Ir      8.49667     11.09741      9.33392        -0.004478      0.004406     -0.000844
Ir     11.59273      8.02717     10.14514         0.005474     -0.004597      0.004833
Ir      7.21874     13.03280      8.65710         0.004708      0.013325      0.012402
Ir      9.54792      6.96248      9.23863         0.007725      0.001136      0.001609
Ir      8.05162      8.76362     10.05769         0.000864      0.002216     -0.003946
Ir     10.71970     12.12275      8.50095        -0.000006      0.001010     -0.005195
Ir      9.51378      7.57344     11.75555         0.002412      0.011252     -0.000542
Ir     13.66747      8.80188      8.84414         0.021432      0.000564      0.017926
