152
# total energy = -1092.81411616 eVH     10.35389      5.87395      7.64558         0.323780     -0.096932      1.324416
H     10.62451     15.10445      7.64558        -0.361372      0.184515      1.600133
H     10.62451      5.87395     13.33282         0.254784     -0.085648     -1.368105
H     10.35389     15.10445     13.33282        -0.266055      0.010908     -1.328421
H      7.64558     10.35389      5.87395         0.410474      0.006856     -0.030759
H      7.64558     10.62451     15.10445         0.410235     -0.005654      0.011328
H     13.33282     10.62451      5.87395        -0.625710     -0.027616      0.028621
H     13.33282     10.35389     15.10445        -0.429713      0.049228      0.007768
H      5.87395      7.64558     10.35389        -0.035020      1.400053      0.139795
H     15.10445      7.64558     10.62451        -0.011441      0.617180      0.039315
H      5.87395     13.33282     10.62451        -0.049115     -0.324027      0.016267
H     15.10445     13.33282     10.35389         0.254930     -1.676978      0.137835
H      5.87395     10.35389      7.64558        -0.178115     -0.496093      0.350846
H     15.10445     10.62451      7.64558         0.529324      0.697442     -0.134939
H      5.87395     10.62451     13.33282        -0.119730     -0.182594     -0.192624
H     15.10445     10.35389     13.33282        -0.026748      0.073818      0.048595
H     10.35389      7.64558      5.87395        -0.334030      0.289590      0.045265
H     10.62451      7.64558     15.10445         0.121355      0.624213      0.200735
H     10.62451     13.33282      5.87395        -0.116535     -0.686790     -0.086529
H     10.35389     13.33282     15.10445        -0.103477     -0.412280      0.312649
H      7.64558      5.87395     10.35389         0.378886     -0.023176     -0.079280
H      7.64558     15.10445     10.62451         0.313106      0.022078     -0.081626
H     13.33282      5.87395     10.62451        -0.274616     -0.067281     -0.029138
H     13.33282     15.10445     10.35389        -0.473761      0.164233     -0.081161
H     12.45634     12.45634     19.01126         0.264209      0.246160     -0.243250
H     19.01126     19.01126     19.01126        -0.260149     -0.244792     -0.251025
H     19.01126     12.45634     12.45634        -0.258821      0.267207      0.233292
H     12.45634     19.01126     12.45634         0.272005     -0.256046      0.227842
C     10.35284      5.61067      6.59456        -0.283193     -0.207701     -1.659931
C     10.62556     15.36773      6.59456         0.450243      0.118363     -1.828695
C     10.62556      5.61067     14.38384        -0.377049     -0.064240      1.628887
C     10.35284     15.36773     14.38384         0.407448      0.071184      1.745779
C      6.59456     10.35284      5.61067        -0.712194     -0.067822     -0.329272
C      6.59456     10.62556     15.36773        -0.841650     -0.031880      0.085159
C     14.38384     10.62556      5.61067         0.957152      0.015397     -0.179478
C     14.38384     10.35284     15.36773         0.775121      0.016785      0.175339
C      5.61067      6.59456     10.35284        -0.111701     -1.356418     -0.096177
C     15.36773      6.59456     10.62556         0.184257     -1.004149      0.018319
C      5.61067     14.38384     10.62556        -0.288465      0.740369      0.021831
C     15.36773     14.38384     10.35284         0.036161      1.671565     -0.054127
C      5.61067     10.35284      6.59456        -0.735625      0.133593     -1.853361
C     15.36773     10.62556      6.59456         0.780765     -0.137437     -2.079738
C      5.61067     10.62556     14.38384        -0.681296      0.079489      1.800772
C     15.36773     10.35284     14.38384         0.619123     -0.064446      1.511916
C     10.35284      6.59456      5.61067         0.102866     -1.489400     -0.776143
C     10.62556      6.59456     15.36773        -0.057784     -1.699831      0.844119
C     10.62556     14.38384      5.61067         0.053378      1.615039     -0.908176
C     10.35284     14.38384     15.36773        -0.028504      1.835951      0.835314
C      6.59456      5.61067     10.35284        -0.541904     -0.885145     -0.075310
C      6.59456     15.36773     10.62556        -1.176818      0.653775      0.081683
C     14.38384      5.61067     10.62556         1.159932     -0.790385      0.089199
C     14.38384     15.36773     10.35284         0.692931      1.051894      0.034822
C     10.40319      3.19606      7.29314         0.015894      0.526699     -0.491665
C     10.35913      4.25547      6.23373        -0.008992     -0.820074      0.459791
C      0.08601      7.29314      7.29314         0.018884     -0.514792     -0.536122
C      0.13007      6.23373      6.23373         0.011740      0.912023      0.478834
C      0.08601      3.19606      3.19606         0.007336      0.650207      0.392454
C      0.13007      4.25547      4.25547        -0.032901     -0.803274     -0.465690
C     10.40319      7.29314      3.19606         0.023187     -0.633858      0.492328
C     10.35913      6.23373      4.25547         0.070772      0.644064     -0.452692
C      7.29314     10.40319      3.19606        -0.313341     -0.003919      0.593099
C      6.23373     10.35913      4.25547         0.170506     -0.067252     -0.210132
C      7.29314      0.08601      7.29314        -0.244366     -0.023548     -0.410465
C      6.23373      0.13007      6.23373         0.123123     -0.083089      0.406632
C      3.19606      0.08601      3.19606         0.372480      0.006704      0.444581
C      4.25547      0.13007      4.25547        -0.184732      0.062093     -0.284202
C      3.19606     10.40319      7.29314         0.282637      0.019452     -0.498354
C      4.25547     10.35913      6.23373        -0.169726      0.091212      0.462971
C      3.19606      7.29314     10.40319         0.201451     -0.364879     -0.010964
C      4.25547      6.23373     10.35913        -0.620431      0.223029      0.077309
C      7.29314      7.29314      0.08601        -0.591455     -0.367977      0.003715
C      6.23373      6.23373      0.13007         0.098945      0.262192     -0.056413
C      3.19606      3.19606      0.08601         0.538992      0.363591     -0.006593
C      4.25547      4.25547      0.13007        -0.057479     -0.122262     -0.019388
C      7.29314      3.19606     10.40319        -0.242878      0.440766     -0.013348
C      6.23373      4.25547     10.35913         0.740477     -0.285422      0.047567
O     10.43466      3.58206      8.50569         0.007819      0.222302      0.452471
O     10.54374     17.39634      8.50569        -0.024393     -0.214769      0.477882
O     10.54374      3.58206     12.47271         0.072996      0.154746     -0.349752
O     10.43466     17.39634     12.47271        -0.124739     -0.180663     -0.377478
O      8.50569     10.43466      3.58206         0.399445     -0.025238      0.068564
O      8.50569     10.54374     17.39634         0.443550      0.056190     -0.119297
O     12.47271     10.54374      3.58206        -0.488596     -0.005732      0.121457
O     12.47271     10.43466     17.39634        -0.451878     -0.052966     -0.124475
O      3.58206      8.50569     10.43466         0.178124      0.443688     -0.049092
O     17.39634      8.50569     10.54374        -0.071349      0.499715      0.035136
O      3.58206     12.47271     10.54374         0.056971     -0.489798      0.041462
O     17.39634     12.47271     10.43466        -0.195806     -0.499853     -0.009593
O      3.58206     10.43466      8.50569         0.173027     -0.018506      0.488210
O     17.39634     10.54374      8.50569        -0.125217     -0.009947      0.458167
O      3.58206     10.54374     12.47271         0.190287      0.073750     -0.448743
O     17.39634     10.43466     12.47271        -0.203658     -0.046738     -0.571103
O     10.43466      8.50569      3.58206         0.048583      0.576174      0.255054
O     10.54374      8.50569     17.39634         0.058642      0.552006     -0.236315
O     10.54374     12.47271      3.58206        -0.006307     -0.662246      0.276437
O     10.43466     12.47271     17.39634        -0.042240     -0.534205     -0.240726
O      8.50569      3.58206     10.43466         0.529360      0.147247     -0.031723
O      8.50569     17.39634     10.54374         0.627111     -0.128566      0.058761
O     12.47271      3.58206     10.54374        -0.619970      0.137850      0.010913
O     12.47271     17.39634     10.43466        -0.500394     -0.141852     -0.009393
O     11.90042     11.90042     19.56718        -0.308845     -0.288243      0.265370
O     19.56718     19.56718     19.56718         0.308254      0.277115      0.287171
O     19.56718     11.90042     11.90042         0.310260     -0.320805     -0.240903
O     11.90042     19.56718     11.90042        -0.327949      0.282832     -0.228712
O      9.45224      1.03696      9.45224        -0.045053      0.048557     -0.071647
O      1.03696      9.45224      9.45224         0.032178     -0.075671     -0.061624
O      1.03696      1.03696      1.03696         0.033394      0.042639      0.126669
O      9.45224      9.45224      1.03696        -0.037457     -0.081621      0.127584
Zr     10.48920      2.52580     10.48920        -0.106901     -0.105837      0.017682
Zr     10.48920     18.45260     10.48920         0.134780      0.182630     -0.126103
Zr     10.48920     10.48920      2.52580         0.007236      0.096462     -0.311882
Zr     10.48920     10.48920     18.45260        -0.018037     -0.024493      0.161888
Zr      2.52580     10.48920     10.48920        -0.040211     -0.015778     -0.055811
Zr     18.45260     10.48920     10.48920         0.128870      0.091188     -0.144104
Pd     13.09078      8.19195      7.74076         0.007976     -0.150180     -0.007768
Pd      9.41756     14.60525     11.77153         0.048056     -0.119649     -0.112196
Pd     12.33777     11.03645     10.46649        -0.030553     -0.089380     -0.006820
Pd     14.68016     10.33536     11.61588        -0.038102     -0.130075     -0.113698
Pd     11.05487      9.24279      6.25036        -0.017816      0.130055      0.035070
Pd      6.77045      8.31092      8.75937         0.304469      0.037350      0.247360
Ir     10.21571     11.90316     11.78989         0.146932     -0.049618      0.067533
Ir     13.03134      8.42537     10.41293         0.083145      0.077786     -0.049804
Ir     12.28529     11.05851      7.76694        -0.029571     -0.023997     -0.027345
Ir      9.54237     14.31875      9.13059         0.130029      0.203621      0.061467
Ir     10.89879      9.26940     11.77695        -0.234955      0.105312     -0.094065
Ir      8.70341      9.93687      7.84724         0.033287      0.074516     -0.003118
Ir     13.84473     12.64169      9.02537        -0.169728      0.098143      0.102704
Ir     11.90369     13.62866      7.81388        -0.072457     -0.014386      0.039556
Ir     14.33815     10.09447      9.08449        -0.024945     -0.157947      0.217062
Ir      9.39592      7.39689     10.52699        -0.167654     -0.076709     -0.070346
Ir      8.09230     12.58778      7.84446         0.014575     -0.115507     -0.029559
Ir      9.19967      7.50737      8.02009        -0.097297     -0.046070     -0.254915
Ir     11.76085     13.66165     13.04542        -0.010076     -0.151313     -0.053759
Ir     11.60371      6.80048     11.81844        -0.024702     -0.065314      0.108179
Ir     10.19816     11.79532      9.11469        -0.142328     -0.196579     -0.052083
Ir     13.01164      8.48907     13.07584         0.150112     -0.087856      0.005628
Ir     10.89827      9.15847      9.04617        -0.004547      0.173353      0.014229
Ir     11.68024     13.66054     10.40198        -0.077180      0.066790      0.019134
Ir     13.75164     12.88789     11.83690        -0.049017     -0.111409      0.024477
Ir     12.36468     11.13533     13.13498         0.058660      0.122552     -0.001446
Ir     10.10040     11.62167      6.51342        -0.049938      0.063876      0.203419
Ir     11.47106      6.63603      9.28381         0.224744     -0.098042     -0.052122
Ir      7.30960      8.23702     11.79726        -0.227088     -0.025035      0.024032
Ir      8.12107     12.64873     10.46201        -0.057820     -0.017323     -0.138463
Ir     10.95169      9.34261     14.33511         0.006107     -0.031342      0.063964
Ir      8.03300     12.48488     13.02736        -0.068606     -0.010038     -0.072822
Ir      6.60447     10.98369      9.19274         0.059480      0.166584     -0.046215
Ir      8.70167      9.96615     13.11844        -0.043619      0.125996     -0.085103
Ir      6.60813     10.77162     11.61512        -0.042145      0.034895      0.028083
Ir      9.23744      7.42005     13.12924        -0.015253     -0.084647      0.029254
Ir     10.10157     11.69139     14.38380         0.255465     -0.114302     -0.093740
Ir      8.75314      9.96343     10.46479        -0.031521      0.140519     -0.101996
