9
# total energy = -63.87478576 eVH      2.54340      2.84534      0.00000        -0.216408      0.002853     -0.000000
H      0.02710      6.60955      0.00000         0.216408     -0.002853     -0.000000
C      1.24114      8.07115     -0.00000        -0.084116     -0.194726     -0.000000
C      1.32937      1.38374      0.00000         0.084116      0.194726     -0.000000
C     -0.00868      8.82651      0.00000        -0.106088      0.135473      0.000000
C      0.00868      0.69857     -0.00000         0.106088     -0.135473      0.000000
N      1.55306      2.70555     -0.00000         0.201751     -0.043609     -0.000000
N      1.01744      6.74934     -0.00000        -0.201751      0.043609     -0.000000
Ir      1.28525      4.72744      0.00000         0.000000     -0.000000     -0.000000
