152
# total energy = -1060.22554682 eVH     10.35389      5.87395      7.64558        -0.156807      0.127687      0.988092
H     10.62451     15.10445      7.64558         0.304922     -0.091730      0.796199
H     10.62451      5.87395     13.33282        -0.269794      0.084950     -0.726130
H     10.35389     15.10445     13.33282         0.152670     -0.273032     -0.766597
H      7.64558     10.35389      5.87395         0.888371     -0.249701      0.202600
H      7.64558     10.62451     15.10445         0.268480     -0.002725     -0.064521
H     13.33282     10.62451      5.87395        -0.821365      0.114852      0.189181
H     13.33282     10.35389     15.10445        -0.295106     -0.062539     -0.045814
H      5.87395      7.64558     10.35389         0.099641      0.427421      0.001281
H     15.10445      7.64558     10.62451        -0.080111      0.484593      0.065566
H      5.87395     13.33282     10.62451         0.021388     -0.930780      0.103997
H     15.10445     13.33282     10.35389        -0.160701     -0.374053      0.020102
H      5.87395     10.35389      7.64558         0.315399      0.051656      0.360144
H     15.10445     10.62451      7.64558        -0.122521     -0.130459      0.603483
H      5.87395     10.62451     13.33282        -0.056076      0.424676     -0.673303
H     15.10445     10.35389     13.33282         0.152224     -0.458973     -0.932246
H     10.35389      7.64558      5.87395         0.014354      0.476554      0.328751
H     10.62451      7.64558     15.10445         0.349778      0.811147     -0.046999
H     10.62451     13.33282      5.87395         0.089823     -0.565484      0.202566
H     10.35389     13.33282     15.10445         0.095369     -0.339827     -0.143591
H      7.64558      5.87395     10.35389         0.382040      0.126568      0.055873
H      7.64558     15.10445     10.62451         0.377832     -0.129356      0.201180
H     13.33282      5.87395     10.62451        -0.314645      0.131439     -0.005043
H     13.33282     15.10445     10.35389        -0.668163     -0.169297      0.217632
H     12.45634     12.45634     19.01126         0.263502      0.272385     -0.220072
H     19.01126     19.01126     19.01126        -0.255319     -0.264636     -0.237957
H     19.01126     12.45634     12.45634        -0.244977      0.272177      0.237075
H     12.45634     19.01126     12.45634         0.293486     -0.228874      0.236451
C     10.35284      5.61067      6.59456         0.339761     -0.373795     -1.319802
C     10.62556     15.36773      6.59456        -0.250779      0.669570     -0.713620
C     10.62556      5.61067     14.38384         0.354669     -0.263471      0.726383
C     10.35284     15.36773     14.38384        -0.181177      0.329505      0.930016
C      6.59456     10.35284      5.61067        -1.315405      0.023307     -0.187183
C      6.59456     10.62556     15.36773        -0.602387      0.065295      0.347172
C     14.38384     10.62556      5.61067         1.418977     -0.170688     -0.629021
C     14.38384     10.35284     15.36773         0.342019     -0.127147      0.393513
C      5.61067      6.59456     10.35284        -0.262513     -0.626749     -0.018110
C     15.36773      6.59456     10.62556         0.409882     -0.844776     -0.045161
C      5.61067     14.38384     10.62556        -0.163600      1.099872     -0.178491
C     15.36773     14.38384     10.35284         0.454329      0.727802     -0.048953
C      5.61067     10.35284      6.59456        -0.361685     -0.132311     -0.719682
C     15.36773     10.62556      6.59456         0.329978      0.125519     -0.571591
C      5.61067     10.62556     14.38384        -0.327392     -0.146152      1.250343
C     15.36773     10.35284     14.38384         0.168380      0.201263      1.291573
C     10.35284      6.59456      5.61067        -0.064178     -0.671260     -0.421447
C     10.62556      6.59456     15.36773        -0.141769     -1.053329      0.371057
C     10.62556     14.38384      5.61067        -0.498191      0.380486     -0.720774
C     10.35284     14.38384     15.36773        -0.155511      0.638526      0.486713
C      6.59456      5.61067     10.35284        -0.546321     -0.325395      0.023249
C      6.59456     15.36773     10.62556        -0.283913      0.431525      0.086317
C     14.38384      5.61067     10.62556         0.443966     -0.320729      0.014456
C     14.38384     15.36773     10.35284         1.133217      0.429139     -0.124028
C     10.40319      3.19606      7.29314        -0.011011      0.927615     -0.369984
C     10.35913      4.25547      6.23373         0.012828     -0.328447      0.326309
C      0.08601      7.29314      7.29314        -0.016515     -0.484402     -0.515899
C      0.13007      6.23373      6.23373        -0.063496      0.800730      0.103806
C      0.08601      3.19606      3.19606        -0.009455      0.643808      0.243204
C      0.13007      4.25547      4.25547         0.071031     -0.251967     -0.554451
C     10.40319      7.29314      3.19606        -0.056071     -1.069826      0.723605
C     10.35913      6.23373      4.25547        -0.064957      0.329071     -0.188296
C      7.29314     10.40319      3.19606        -1.076830     -0.053892      0.233681
C      6.23373     10.35913      4.25547         0.382149      0.115668     -0.533299
C      7.29314      0.08601      7.29314        -0.652731      0.019777     -0.365438
C      6.23373      0.13007      6.23373         0.163988      0.094105      0.096600
C      3.19606      0.08601      3.19606         0.659319      0.007853      0.168722
C      4.25547      0.13007      4.25547        -0.198251     -0.082768     -0.326536
C      3.19606     10.40319      7.29314         0.535675     -0.029922     -0.952062
C      4.25547     10.35913      6.23373        -0.141189     -0.033383      0.166093
C      3.19606      7.29314     10.40319         0.699348     -0.371885      0.010332
C      4.25547      6.23373     10.35913        -0.121527      0.186215     -0.002804
C      7.29314      7.29314      0.08601        -0.454525     -0.281969     -0.011775
C      6.23373      6.23373      0.13007         0.154210      0.135764     -0.109427
C      3.19606      3.19606      0.08601         0.324073      0.537383     -0.015486
C      4.25547      4.25547      0.13007        -0.434030     -0.264619     -0.027851
C      7.29314      3.19606     10.40319        -0.291483      0.590827     -0.002063
C      6.23373      4.25547     10.35913         0.006901     -0.136911      0.021453
O     10.43466      3.58206      8.50569        -0.031871      0.036331      0.239715
O     10.54374     17.39634      8.50569         0.053475     -0.088524      0.529032
O     10.54374      3.58206     12.47271         0.033196      0.113473     -0.411176
O     10.43466     17.39634     12.47271         0.090242     -0.061163     -0.479781
O      8.50569     10.43466      3.58206         0.709618     -0.068526      0.026601
O      8.50569     10.54374     17.39634         0.699401      0.070596     -0.100922
O     12.47271     10.54374      3.58206        -0.612952      0.128951      0.211356
O     12.47271     10.43466     17.39634        -0.373665     -0.001227      0.030272
O      3.58206      8.50569     10.43466         0.019032      0.420575     -0.069728
O     17.39634      8.50569     10.54374        -0.057182      0.435484      0.060015
O      3.58206     12.47271     10.54374         0.120819     -0.620927     -0.000847
O     17.39634     12.47271     10.43466        -0.205693     -0.737172     -0.030625
O      3.58206     10.43466      8.50569         0.194708     -0.040148      0.782959
O     17.39634     10.54374      8.50569        -0.002198      0.061141      0.364547
O      3.58206     10.54374     12.47271         0.003971      0.001015     -0.284993
O     17.39634     10.43466     12.47271         0.009149     -0.009045     -0.266370
O     10.43466      8.50569      3.58206        -0.108207      0.519006     -0.087447
O     10.54374      8.50569     17.39634         0.059434      0.558677     -0.066403
O     10.54374     12.47271      3.58206         0.095301     -0.581398      0.120331
O     10.43466     12.47271     17.39634        -0.039094     -0.836356     -0.317302
O      8.50569      3.58206     10.43466         0.401628      0.028790     -0.057548
O      8.50569     17.39634     10.54374         0.644477     -0.155903      0.036306
O     12.47271      3.58206     10.54374        -0.522368      0.117027      0.021156
O     12.47271     17.39634     10.43466        -0.665304     -0.123830      0.051306
O     11.90042     11.90042     19.56718        -0.272384     -0.291903      0.214495
O     19.56718     19.56718     19.56718         0.313558      0.308959      0.288966
O     19.56718     11.90042     11.90042         0.278028     -0.320043     -0.241777
O     11.90042     19.56718     11.90042        -0.313842      0.219957     -0.208803
O      9.45224      1.03696      9.45224        -0.098194      0.125914     -0.056702
O      1.03696      9.45224      9.45224         0.139840     -0.139471     -0.048689
O      1.03696      1.03696      1.03696         0.094089      0.072421      0.073862
O      9.45224      9.45224      1.03696        -0.074509     -0.141212      0.126214
Zr     10.48920      2.52580     10.48920         0.037170     -0.140907      0.169697
Zr     10.48920     18.45260     10.48920        -0.193511      0.271656     -0.337808
Zr     10.48920     10.48920      2.52580         0.130537      0.363944     -0.284110
Zr     10.48920     10.48920     18.45260        -0.089104     -0.241143      0.310424
Zr      2.52580     10.48920     10.48920        -0.283633      0.103794      0.273886
Zr     18.45260     10.48920     10.48920         0.179915     -0.140506     -0.050191
Pd      9.36239     14.43980      9.17060         0.010612     -0.008376      0.144515
Pd      8.62991     13.62227     13.16174        -0.004877      0.102581     -0.058341
Pd     12.08667     14.38702      8.80818        -0.214918      0.057182     -0.051620
Pd     12.60692     12.83692     10.79704        -0.178411     -0.186392      0.121448
Pd     12.16057      7.18078     12.66407        -0.126497     -0.149369      0.030637
Pd     11.13089     15.02474     11.37884        -0.126093     -0.076886     -0.017585
Pd      9.87462     12.72303     10.94091         0.319880      0.014197      0.454140
Pd     13.51026     12.25790      8.00489         0.161704     -0.138879      0.073601
Pd     11.55603     11.60271      6.13638        -0.091218      0.177151     -0.215633
Pd      7.90446      8.24874      7.46825         0.055130     -0.012872      0.090889
Pd      8.70117     11.74305      6.85281         0.015877      0.088413     -0.116218
Pd     10.19942      9.42706      8.20530        -0.044698      0.093760     -0.111852
Pd      8.46052     14.45077      6.71045        -0.035015     -0.016051     -0.156317
Pd     12.32909      9.14087      6.76176         0.094776     -0.041035      0.128398
Pd      9.78695      9.68241      5.56199        -0.016568     -0.133897      0.030953
Pd      6.90351      9.48287     12.17845        -0.077396     -0.168627     -0.109603
Pd     12.25423      6.79016      8.04268         0.007718     -0.267723     -0.354720
Pd      5.93015     10.54561      9.70566        -0.160963     -0.081788      0.116752
Pd      7.50719      7.18644     13.32482         0.093939     -0.042776      0.091186
Ir     11.63141      9.73112     13.08197        -0.161706     -0.171811      0.175988
Ir     13.49528      9.13000     11.51967        -0.125779      0.006619      0.019650
Ir      9.37183      8.82575     14.05454        -0.205031      0.012264     -0.383055
Ir     10.48070     10.83152     15.12642        -0.113909     -0.078760     -0.340542
Ir      7.28345     11.99590     11.42174         0.102372      0.052430     -0.215382
Ir     14.57493     10.99726     10.25898         0.022719      0.181413      0.132361
Ir     12.18391     10.54806      9.54938         0.007396      0.279911      0.043044
Ir      8.90058     11.03544     12.99522         0.211021     -0.182986      0.045075
Ir     10.12122      9.95859     11.04675        -0.168320     -0.125732      0.105034
Ir     13.55302     11.42686     12.66025        -0.108076      0.075251     -0.080044
Ir     11.23174     12.23747     13.09915         0.250335      0.298510     -0.028258
Ir      8.47299     11.12135      9.32834         0.053023      0.070415      0.156891
Ir     11.60096      8.00687     10.18522        -0.176979      0.102664      0.060460
Ir      7.23522     13.05188      8.69559        -0.186609      0.412870     -0.153995
Ir      9.54398      6.93858      9.22999         0.010102      0.093387      0.218672
Ir      8.04064      8.77345     10.00592        -0.076940      0.007302      0.147655
Ir     10.72205     12.15038      8.47737        -0.068257     -0.065057      0.144324
Ir      9.49355      7.64241     11.75249         0.172299      0.062139      0.040291
Ir     13.77974      8.75195      8.96395         0.233974     -0.057224      0.002014
