152
# total energy = -1061.38217509 eVH     10.35389      5.87395      7.64558        -0.142761      0.131370      0.992708
H     10.62451     15.10445      7.64558         0.244434     -0.077140      0.834499
H     10.62451      5.87395     13.33282        -0.143646      0.084803     -0.504491
H     10.35389     15.10445     13.33282         0.071842     -0.220900     -0.423452
H      7.64558     10.35389      5.87395         0.864241      0.106574      0.206626
H      7.64558     10.62451     15.10445         0.191705     -0.004268     -0.064472
H     13.33282     10.62451      5.87395        -0.639807     -0.019221      0.172891
H     13.33282     10.35389     15.10445        -0.329367     -0.081182     -0.053961
H      5.87395      7.64558     10.35389         0.138690      0.362551     -0.039756
H     15.10445      7.64558     10.62451        -0.133503      0.592998      0.256743
H      5.87395     13.33282     10.62451         0.131230     -0.560789      0.018891
H     15.10445     13.33282     10.35389        -0.239585     -0.442734      0.101383
H      5.87395     10.35389      7.64558         0.196046      0.200687      0.376009
H     15.10445     10.62451      7.64558        -0.173395     -0.190894      0.519214
H      5.87395     10.62451     13.33282         0.032480      0.131837     -0.724526
H     15.10445     10.35389     13.33282         0.090710     -0.282787     -0.723123
H     10.35389      7.64558      5.87395        -0.092830      0.434389      0.249929
H     10.62451      7.64558     15.10445         0.419323      0.701173     -0.103731
H     10.62451     13.33282      5.87395         0.224541     -0.582891      0.115913
H     10.35389     13.33282     15.10445         0.174598     -0.684861     -0.075731
H      7.64558      5.87395     10.35389         0.438221      0.156620     -0.068704
H      7.64558     15.10445     10.62451         0.448875     -0.168666      0.349661
H     13.33282      5.87395     10.62451        -0.362781      0.149717     -0.052789
H     13.33282     15.10445     10.35389        -0.549890     -0.249834      0.146151
H     12.45634     12.45634     19.01126         0.238679      0.264690     -0.241770
H     19.01126     19.01126     19.01126        -0.257214     -0.264602     -0.227608
H     19.01126     12.45634     12.45634        -0.232233      0.268975      0.242026
H     12.45634     19.01126     12.45634         0.285561     -0.211147      0.247480
C     10.35284      5.61067      6.59456         0.303534     -0.292963     -0.893372
C     10.62556     15.36773      6.59456        -0.176206      0.665721     -0.360466
C     10.62556      5.61067     14.38384         0.269002     -0.341754      0.512800
C     10.35284     15.36773     14.38384        -0.126741      0.265058      0.349429
C      6.59456     10.35284      5.61067        -0.807649     -0.146255     -0.214944
C      6.59456     10.62556     15.36773        -0.554583      0.060646      0.349357
C     14.38384     10.62556      5.61067         0.941664     -0.016113     -0.552431
C     14.38384     10.35284     15.36773         0.274230     -0.089188      0.370731
C      5.61067      6.59456     10.35284        -0.377103     -0.451984      0.042081
C     15.36773      6.59456     10.62556         0.273111     -0.690318     -0.146582
C      5.61067     14.38384     10.62556        -0.177871      0.581149     -0.258777
C     15.36773     14.38384     10.35284         0.384804      0.818744     -0.118598
C      5.61067     10.35284      6.59456        -0.263559     -0.131162     -0.189780
C     15.36773     10.62556      6.59456         0.213427      0.184591     -0.432922
C      5.61067     10.62556     14.38384        -0.361036     -0.022059      1.229693
C     15.36773     10.35284     14.38384         0.280158     -0.039599      0.989014
C     10.35284      6.59456      5.61067         0.046848     -0.310088     -0.454694
C     10.62556      6.59456     15.36773        -0.040057     -0.879171      0.260179
C     10.62556     14.38384      5.61067        -0.400457      0.013642     -0.803154
C     10.35284     14.38384     15.36773        -0.230620      0.903428      0.232733
C      6.59456      5.61067     10.35284        -0.397739     -0.286236      0.184964
C      6.59456     15.36773     10.62556        -0.521364      0.540793      0.023701
C     14.38384      5.61067     10.62556         0.409975     -0.316747      0.069850
C     14.38384     15.36773     10.35284         0.839107      0.281095     -0.065766
C     10.40319      3.19606      7.29314        -0.000222      0.614057     -0.319603
C     10.35913      4.25547      6.23373        -0.000197     -0.481989      0.420889
C      0.08601      7.29314      7.29314        -0.020845     -0.843234     -0.474238
C      0.13007      6.23373      6.23373        -0.154481      0.857683      0.137497
C      0.08601      3.19606      3.19606        -0.012285      0.370413      0.377647
C      0.13007      4.25547      4.25547         0.067611     -0.165682     -0.639139
C     10.40319      7.29314      3.19606        -0.047203     -1.097040      0.858976
C     10.35913      6.23373      4.25547         0.012985      0.336989     -0.179754
C      7.29314     10.40319      3.19606        -1.096632     -0.072533      0.360730
C      6.23373     10.35913      4.25547         0.277495      0.029465     -0.624870
C      7.29314      0.08601      7.29314        -0.949637     -0.002895     -0.406647
C      6.23373      0.13007      6.23373         0.221694      0.025687      0.118423
C      3.19606      0.08601      3.19606         0.332895     -0.004040      0.381597
C      4.25547      0.13007      4.25547        -0.278109     -0.046193     -0.162138
C      3.19606     10.40319      7.29314         0.492110     -0.047453     -1.067365
C      4.25547     10.35913      6.23373        -0.299003     -0.052569      0.125220
C      3.19606      7.29314     10.40319         0.879699     -0.506058      0.010472
C      4.25547      6.23373     10.35913        -0.132984      0.163711     -0.001016
C      7.29314      7.29314      0.08601        -0.416832     -0.273115     -0.005909
C      6.23373      6.23373      0.13007         0.241879      0.072071     -0.140209
C      3.19606      3.19606      0.08601         0.332771      0.707216     -0.009626
C      4.25547      4.25547      0.13007        -0.380733     -0.218950      0.053085
C      7.29314      3.19606     10.40319        -0.212542      0.559085      0.020513
C      6.23373      4.25547     10.35913         0.046028     -0.269757      0.014618
O     10.43466      3.58206      8.50569        -0.019554      0.120385      0.347241
O     10.54374     17.39634      8.50569         0.059354      0.044105      0.310416
O     10.54374      3.58206     12.47271         0.042162      0.199784     -0.569220
O     10.43466     17.39634     12.47271         0.031477     -0.008398     -0.458062
O      8.50569     10.43466      3.58206         0.733059     -0.073234      0.062068
O      8.50569     10.54374     17.39634         0.917866      0.029695     -0.161686
O     12.47271     10.54374      3.58206        -0.348092      0.044947      0.067312
O     12.47271     10.43466     17.39634        -0.350283     -0.026468      0.063003
O      3.58206      8.50569     10.43466        -0.039454      0.380010     -0.082589
O     17.39634      8.50569     10.54374        -0.117061      0.431304      0.033605
O      3.58206     12.47271     10.54374         0.130905     -0.717271     -0.011419
O     17.39634     12.47271     10.43466        -0.248631     -0.666928     -0.013593
O      3.58206     10.43466      8.50569         0.132396     -0.042621      0.825190
O     17.39634     10.54374      8.50569         0.038956      0.044560      0.285160
O      3.58206     10.54374     12.47271         0.070810      0.019282     -0.446601
O     17.39634     10.43466     12.47271        -0.006064      0.016963     -0.308745
O     10.43466      8.50569      3.58206        -0.067543      0.573028     -0.087068
O     10.54374      8.50569     17.39634         0.022851      0.866251     -0.190444
O     10.54374     12.47271      3.58206         0.059578     -0.364011      0.089074
O     10.43466     12.47271     17.39634        -0.062259     -0.667037     -0.207920
O      8.50569      3.58206     10.43466         0.342412      0.065472     -0.052543
O      8.50569     17.39634     10.54374         0.505912     -0.133719      0.012962
O     12.47271      3.58206     10.54374        -0.395206      0.089688      0.026843
O     12.47271     17.39634     10.43466        -0.704555     -0.100453      0.063338
O     11.90042     11.90042     19.56718        -0.249532     -0.279345      0.227763
O     19.56718     19.56718     19.56718         0.288928      0.301431      0.246184
O     19.56718     11.90042     11.90042         0.233841     -0.298485     -0.287886
O     11.90042     19.56718     11.90042        -0.283311      0.179115     -0.258001
O      9.45224      1.03696      9.45224        -0.121190      0.113518     -0.083489
O      1.03696      9.45224      9.45224         0.148831     -0.133766     -0.162488
O      1.03696      1.03696      1.03696         0.139208      0.199778     -0.010986
O      9.45224      9.45224      1.03696        -0.211047     -0.167552      0.046898
Zr     10.48920      2.52580     10.48920         0.012503     -0.245076      0.183755
Zr     10.48920     18.45260     10.48920        -0.249972      0.256427     -0.243697
Zr     10.48920     10.48920      2.52580         0.279105      0.451801     -0.217540
Zr     10.48920     10.48920     18.45260         0.041450     -0.041680      0.500894
Zr      2.52580     10.48920     10.48920        -0.545582      0.061282      0.358183
Zr     18.45260     10.48920     10.48920         0.269406     -0.159393      0.031730
Pd      9.08960     14.49343      9.20936         0.013644     -0.000357     -0.031088
Pd      8.37130     13.25361     13.75134         0.002440     -0.027105      0.043930
Pd     11.99186     14.22021      8.76092         0.052922     -0.035158     -0.026856
Pd     12.29201     12.75626     10.90706        -0.062640      0.054514     -0.040775
Pd     11.85861      7.10615     12.06563        -0.020681     -0.044630     -0.015448
Pd     10.99974     15.30115     11.00713         0.064374      0.009989     -0.001728
Pd      9.62421     13.06086     11.41551         0.016631      0.031229      0.015347
Pd     13.96341     12.51751      8.18938         0.000342     -0.037413     -0.004850
Pd     11.66781     11.72585      6.79532         0.018616      0.041433      0.031578
Pd      7.54434      8.50588      7.25754        -0.016768     -0.014674      0.016576
Pd      8.73162     11.96643      6.88912         0.023349      0.003162     -0.005433
Pd      9.82229      9.82339      8.05494         0.029016     -0.040199     -0.018050
Pd      8.48993     14.61680      6.55351         0.019911      0.003814     -0.013023
Pd     12.15798      9.03189      6.94044         0.004019     -0.016240     -0.027484
Pd     10.05072      9.97139      5.42930        -0.040768     -0.034183      0.030274
Pd      6.93413      9.16347     12.23352        -0.001250      0.004718     -0.048896
Pd     12.43033      6.51662      7.80594        -0.017188     -0.020331     -0.011974
Pd      5.61798     10.57433     10.04733         0.029955      0.033734      0.034050
Pd      7.66213      6.64207     12.89801         0.005773      0.050147     -0.083748
Ir     11.29505      9.57617     12.95623         0.100916     -0.016391     -0.051397
Ir     13.10841      9.24718     11.22444        -0.074153     -0.043325     -0.044410
Ir      9.16537      8.47195     13.88049         0.010530     -0.004757     -0.094164
Ir     10.24919     10.44506     15.15759         0.020427     -0.012769     -0.016156
Ir      7.08996     11.83657     11.81338        -0.018400      0.008846     -0.017162
Ir     14.50081     11.12580     10.42817        -0.007224      0.043898     -0.045416
Ir     12.35821     10.59499      9.15230        -0.038141     -0.003800     -0.002678
Ir      8.92339     10.81037     12.94467        -0.012279      0.012522     -0.025163
Ir     10.06204     10.26399     10.69654        -0.037572     -0.010111     -0.039114
Ir     13.30736     11.27015     12.68327         0.040397     -0.040033      0.053165
Ir     11.10180     12.06416     13.40646        -0.030542      0.081137     -0.030472
Ir      8.00023     11.66052      9.50588        -0.075218      0.022641      0.010330
Ir     11.35813      8.13498      9.58818        -0.059117      0.022188      0.012427
Ir      6.93622     13.36859      8.20883         0.007207      0.022128      0.081942
Ir      9.16152      7.24444      8.89880        -0.003884      0.046281      0.043415
Ir      7.81840      9.14955      9.78154         0.011185     -0.000103     -0.025396
Ir     10.41091     12.26102      8.99299         0.025370      0.071569      0.011567
Ir      9.37989      7.87322     11.37568        -0.008703     -0.001074     -0.036560
Ir     13.81960      8.45320      8.93293        -0.052680     -0.025251     -0.053016
