152
# total energy = -1110.38043125 eVH     10.35389      5.87395      7.64558        -0.360319     -0.140773      1.079931
H     10.62451     15.10445      7.64558         0.354235      0.081408      0.937085
H     10.62451      5.87395     13.33282        -0.320157     -0.695616     -1.380735
H     10.35389     15.10445     13.33282        -0.611343      0.413014     -0.326634
H      7.64558     10.35389      5.87395         0.544620     -0.528843     -0.089737
H      7.64558     10.62451     15.10445         0.375126     -0.240071      0.044810
H     13.33282     10.62451      5.87395        -0.553562      0.631388     -0.033948
H     13.33282     10.35389     15.10445        -0.527855      0.406612      0.161559
H      5.87395      7.64558     10.35389         0.147606      0.534108      0.032964
H     15.10445      7.64558     10.62451         0.431492      0.957349      0.264368
H      5.87395     13.33282     10.62451        -0.224503     -0.481102      0.362589
H     15.10445     13.33282     10.35389         0.028615     -0.303961     -0.383645
H      5.87395     10.35389      7.64558        -0.083936     -0.375938      1.447878
H     15.10445     10.62451      7.64558         0.213357      0.470604      1.298704
H      5.87395     10.62451     13.33282        -0.190941     -0.359122     -1.178807
H     15.10445     10.35389     13.33282         0.580252      0.942060     -1.526311
H     10.35389      7.64558      5.87395        -0.553633      0.508218     -0.181753
H     10.62451      7.64558     15.10445        -0.139971      0.496358      0.180005
H     10.62451     13.33282      5.87395         0.884272     -1.368944     -0.320312
H     10.35389     13.33282     15.10445         0.254482     -0.556896     -0.091108
H      7.64558      5.87395     10.35389         0.716250      0.171716     -0.156236
H      7.64558     15.10445     10.62451         1.979889      0.777088      0.211683
H     13.33282      5.87395     10.62451        -2.687546     -0.953307     -0.472782
H     13.33282     15.10445     10.35389        -0.877278     -0.050179     -0.251029
H     12.45634     12.45634     19.01126         0.271948      0.257912     -0.227150
H     19.01126     19.01126     19.01126        -0.266813     -0.254947     -0.238287
H     19.01126     12.45634     12.45634        -0.283122      0.281228      0.186453
H     12.45634     19.01126     12.45634         0.256008     -0.251152      0.236049
C     10.35284      5.61067      6.59456         0.083166     -0.500878     -1.231395
C     10.62556     15.36773      6.59456         0.174489      0.758718     -0.820918
C     10.62556      5.61067     14.38384         0.183308     -0.311723      1.803733
C     10.35284     15.36773     14.38384         0.101654      0.386951      1.804246
C      6.59456     10.35284      5.61067        -1.130226     -0.110477     -0.866381
C      6.59456     10.62556     15.36773        -0.696169     -0.101126      0.767213
C     14.38384     10.62556      5.61067         0.863452     -0.110856     -1.000369
C     14.38384     10.35284     15.36773         1.198906      0.166938      1.105787
C      5.61067      6.59456     10.35284        -0.673553     -0.863638     -0.178314
C     15.36773      6.59456     10.62556         1.974620     -0.258686     -0.184144
C      5.61067     14.38384     10.62556        -1.573087     -0.007406     -0.129791
C     15.36773     14.38384     10.35284         0.486109      0.072623      0.013783
C      5.61067     10.35284      6.59456        -0.275402      0.199590     -1.345414
C     15.36773     10.62556      6.59456         0.284870     -0.234355     -0.997042
C      5.61067     10.62556     14.38384        -0.261327      0.421068      1.448567
C     15.36773     10.35284     14.38384         0.045886     -0.449312      1.931907
C     10.35284      6.59456      5.61067        -0.180468     -0.884550     -0.687528
C     10.62556      6.59456     15.36773        -0.110190     -0.762042      1.053412
C     10.62556     14.38384      5.61067        -0.498838      2.012963     -0.774023
C     10.35284     14.38384     15.36773        -0.277043      1.416475      0.488899
C      6.59456      5.61067     10.35284        -0.970297     -0.411702      0.085674
C      6.59456     15.36773     10.62556        -1.296799      0.370134     -0.330812
C     14.38384      5.61067     10.62556         1.287856     -1.252200      0.181178
C     14.38384     15.36773     10.35284         0.439936      0.314257      0.072400
C     10.40319      3.19606      7.29314         0.001857      0.308505     -0.103504
C     10.35913      4.25547      6.23373         0.139914     -0.538714      0.017989
C      0.08601      7.29314      7.29314        -0.053205     -0.297132     -0.425037
C      0.13007      6.23373      6.23373        -0.122416      0.701213      0.029948
C      0.08601      3.19606      3.19606        -0.107253      1.636087      0.171270
C      0.13007      4.25547      4.25547        -0.087508     -0.401356     -1.229716
C     10.40319      7.29314      3.19606         0.016184     -0.432757      0.124706
C     10.35913      6.23373      4.25547         0.261370      0.082652     -0.510178
C      7.29314     10.40319      3.19606        -1.672656      0.007468      0.325342
C      6.23373     10.35913      4.25547         0.657717      0.077494     -0.611395
C      7.29314      0.08601      7.29314        -0.405651     -0.012362     -0.307463
C      6.23373      0.13007      6.23373         0.681527     -0.055252      0.262604
C      3.19606      0.08601      3.19606         0.657621     -0.016466      0.185186
C      4.25547      0.13007      4.25547        -0.370978     -0.075317     -0.531161
C      3.19606     10.40319      7.29314         0.367302      0.019465     -0.316383
C      4.25547     10.35913      6.23373        -0.727543      0.067470      0.366596
C      3.19606      7.29314     10.40319         0.294151     -0.210766     -0.006475
C      4.25547      6.23373     10.35913         0.046287      0.643856      0.091863
C      7.29314      7.29314      0.08601        -0.718669     -0.606910     -0.020922
C      6.23373      6.23373      0.13007         0.871590      1.130114     -0.072124
C      3.19606      3.19606      0.08601         0.816301      0.504221      0.008322
C      4.25547      4.25547      0.13007        -0.327780     -1.744850     -0.127736
C      7.29314      3.19606     10.40319        -0.329630      0.275200     -0.003705
C      6.23373      4.25547     10.35913         0.509228     -0.028130      0.229834
O     10.43466      3.58206      8.50569        -0.048219      0.183224      0.258427
O     10.54374     17.39634      8.50569         0.042075     -0.232972      0.485025
O     10.54374      3.58206     12.47271         0.084006     -0.064426     -0.035103
O     10.43466     17.39634     12.47271        -0.023146     -0.141122     -0.274846
O      8.50569     10.43466      3.58206         0.985666      0.185380      0.384985
O      8.50569     10.54374     17.39634         0.573153      0.084490     -0.228482
O     12.47271     10.54374      3.58206        -0.422757     -0.038859      0.186455
O     12.47271     10.43466     17.39634        -0.516285     -0.069592     -0.196606
O      3.58206      8.50569     10.43466         0.182405      0.431369     -0.029899
O     17.39634      8.50569     10.54374        -0.230229      0.714715      0.044368
O      3.58206     12.47271     10.54374         0.160798     -0.675610      0.025201
O     17.39634     12.47271     10.43466        -0.185663     -0.479540     -0.011782
O      3.58206     10.43466      8.50569         0.224133     -0.059908      0.401778
O     17.39634     10.54374      8.50569        -0.170846      0.036975      0.410856
O      3.58206     10.54374     12.47271         0.146807      0.021083     -0.305616
O     17.39634     10.43466     12.47271         0.072357     -0.050126     -0.081573
O     10.43466      8.50569      3.58206         0.000800      0.275546      0.181421
O     10.54374      8.50569     17.39634         0.070655      0.435851     -0.179426
O     10.54374     12.47271      3.58206        -0.222142     -0.969589      0.342363
O     10.43466     12.47271     17.39634        -0.083866     -0.449658     -0.244960
O      8.50569      3.58206     10.43466         0.494132      0.196419     -0.011795
O      8.50569     17.39634     10.54374         0.663292     -0.198614      0.022093
O     12.47271      3.58206     10.54374        -0.742178      0.278652      0.036620
O     12.47271     17.39634     10.43466        -0.437588     -0.202917     -0.044048
O     11.90042     11.90042     19.56718        -0.346285     -0.307500      0.259437
O     19.56718     19.56718     19.56718         0.325150      0.311692      0.282697
O     19.56718     11.90042     11.90042         0.276633     -0.276343     -0.140272
O     11.90042     19.56718     11.90042        -0.306091      0.285978     -0.233828
O      9.45224      1.03696      9.45224        -0.059040      0.071989     -0.047151
O      1.03696      9.45224      9.45224         0.035737     -0.073721     -0.071899
O      1.03696      1.03696      1.03696         0.059261      0.142577      0.101119
O      9.45224      9.45224      1.03696        -0.135949     -0.092107      0.101232
Zr     10.48920      2.52580     10.48920         0.154594     -0.167756     -0.163199
Zr     10.48920     18.45260     10.48920        -0.097949      0.181656     -0.045898
Zr     10.48920     10.48920      2.52580         0.333690     -0.309328     -0.198844
Zr     10.48920     10.48920     18.45260         0.007529     -0.086794      0.205566
Zr      2.52580     10.48920     10.48920        -0.067780      0.172047     -0.051507
Zr     18.45260     10.48920     10.48920         0.141138     -0.127691     -0.249383
Ir     12.04799     12.48511     10.46031        -0.005558      0.001183      0.001260
Ir     11.19239      7.41675     10.29035         0.020015     -0.003792     -0.015534
Ir      8.83695      7.36862     11.55959         0.013878     -0.005644     -0.014309
Ir      7.47976     11.65454      7.65995        -0.008346     -0.003925      0.000847
Ir     11.59364     12.08605      7.12210         0.001672     -0.003648     -0.007027
Ir     13.76327      8.98871      7.54728         0.011438      0.000141     -0.007898
Ir     12.48511     13.95506      8.41737        -0.008324     -0.003991     -0.001403
Ir      9.72673     11.26133      5.55918         0.006704     -0.000620     -0.007330
Ir      9.08010     13.46270      7.07686        -0.002707     -0.008478      0.002240
Ir      9.27908      9.66544      7.52169        -0.005343     -0.001122     -0.018620
Ir     13.27800      7.03948     11.95480         0.001894      0.008192      0.005488
Ir     13.59434      7.03625      9.11629         0.022160      0.005054     -0.006196
Ir     11.03744      7.59942     12.83782         0.006820     -0.003411     -0.019561
Ir     13.60769     11.56303      8.75476         0.001263      0.005097     -0.000212
Ir     11.50427      9.64433      6.23289        -0.000345     -0.007743     -0.007053
Ir      7.15362      9.17047      8.93648        -0.005272     -0.012372     -0.010847
Ir     14.06123     11.43183     11.65804        -0.006978      0.004923     -0.003951
Ir     11.65557      9.85336      8.88656         0.000159     -0.015563     -0.010288
Ir      9.43466      9.51420     10.24293         0.008938     -0.006980      0.000140
Ir     13.86719      9.40491     10.18316         0.013365      0.004775     -0.002287
Ir     13.81786      9.15933     12.90214         0.004648     -0.000658     -0.012439
Ir     11.69160      9.76328     11.56183         0.005804     -0.003052     -0.006840
Ir      9.91108     11.74450      8.97319         0.004539     -0.005515     -0.002381
Ir      9.07353      7.43403      8.81619         0.018876      0.000926     -0.018897
Ir     11.57014      7.56289      7.76481         0.035206     -0.018329     -0.020518
Ir      9.25230      9.48618     13.01640         0.009334     -0.010144     -0.010195
Ir      7.51712     13.91080      8.99476        -0.000940     -0.008772     -0.000695
Ir     10.88452     14.11216     11.95057        -0.013189     -0.007010     -0.000341
Ir     10.11750     14.16087      9.52177        -0.003512     -0.011470     -0.002104
Ir      9.79420     11.69376     11.72792         0.003682     -0.014007      0.003981
Ir      7.58803     11.57948     10.21320        -0.000148     -0.011299     -0.003147
Ir      8.35696     13.75206     11.58643        -0.006484     -0.007214     -0.001255
Ir      7.52639     11.57139     12.82927        -0.000407     -0.015543     -0.000865
Ir      9.77061     11.61765     14.34479         0.005300     -0.010980      0.001249
Ir     13.48173     13.88226     12.19068        -0.004555      0.001888     -0.000248
Ir     11.99350     12.05233     13.08436        -0.004136     -0.009619     -0.008679
Ir     11.57589      9.80356     14.20221         0.002673     -0.005510     -0.017783
Ir      7.14947      9.37325     11.49710         0.004094     -0.013949     -0.003964
