152
# total energy = -1005.19048229 eVH     10.35389      5.87395      7.64558         0.185496      0.096050      0.583555
H     10.62451     15.10445      7.64558        -0.118519     -0.146550      0.496074
H     10.62451      5.87395     13.33282         0.545293      0.069183     -0.865604
H     10.35389     15.10445     13.33282         0.016129     -0.153937     -0.395994
H      7.64558     10.35389      5.87395         0.350196      0.039078      0.166477
H      7.64558     10.62451     15.10445         0.953586      0.575929      0.029728
H     13.33282     10.62451      5.87395        -0.471211      0.339751      0.073365
H     13.33282     10.35389     15.10445        -0.853511     -0.089631     -0.001863
H      5.87395      7.64558     10.35389         0.317807      1.301658      0.036538
H     15.10445      7.64558     10.62451        -0.104110      0.509697      0.350325
H      5.87395     13.33282     10.62451         0.168896     -0.574905      0.049880
H     15.10445     13.33282     10.35389        -0.083902     -0.955395     -0.202015
H      5.87395     10.35389      7.64558         0.222684      0.051379      0.445065
H     15.10445     10.62451      7.64558        -0.142461      0.546880      0.762305
H      5.87395     10.62451     13.33282        -0.028114      0.478072     -1.118141
H     15.10445     10.35389     13.33282        -0.088811     -0.040179     -0.621996
H     10.35389      7.64558      5.87395         0.355873      1.167887      0.063641
H     10.62451      7.64558     15.10445         0.627098      0.698071     -0.204943
H     10.62451     13.33282      5.87395        -0.381926     -0.818725      0.296735
H     10.35389     13.33282     15.10445        -0.120936     -0.474068     -0.298899
H      7.64558      5.87395     10.35389         0.772203      0.064449     -0.202684
H      7.64558     15.10445     10.62451         0.808954     -0.173479      0.008522
H     13.33282      5.87395     10.62451        -0.708586      0.157028      0.552738
H     13.33282     15.10445     10.35389        -0.390253     -0.117463     -0.097849
H     12.45634     12.45634     19.01126         0.248352      0.275486     -0.229917
H     19.01126     19.01126     19.01126        -0.279943     -0.254723     -0.231735
H     19.01126     12.45634     12.45634        -0.280293      0.262563      0.216116
H     12.45634     19.01126     12.45634         0.237604     -0.259347      0.274126
C     10.35284      5.61067      6.59456        -0.267226     -0.789189     -0.176821
C     10.62556     15.36773      6.59456         0.048621      0.289799     -0.271329
C     10.62556      5.61067     14.38384        -0.134725     -0.493771      0.396551
C     10.35284     15.36773     14.38384         0.024954      0.182980      0.340138
C      6.59456     10.35284      5.61067        -0.384592      0.009460     -0.220235
C      6.59456     10.62556     15.36773        -0.821971      0.114729      0.656116
C     14.38384     10.62556      5.61067        -0.146904     -0.450314     -0.735681
C     14.38384     10.35284     15.36773         1.064630     -0.084448      0.159499
C      5.61067      6.59456     10.35284        -0.741841     -0.312600     -0.282693
C     15.36773      6.59456     10.62556         0.522284      0.080577     -0.410091
C      5.61067     14.38384     10.62556        -0.184526      0.545008      0.000149
C     15.36773     14.38384     10.35284         0.271144      0.941096      0.024123
C      5.61067     10.35284      6.59456        -0.307061      0.019195     -0.816978
C     15.36773     10.62556      6.59456         0.517499     -0.244635      0.231521
C      5.61067     10.62556     14.38384        -0.725587      0.011593      0.766385
C     15.36773     10.35284     14.38384         0.439404     -0.042282      0.996610
C     10.35284      6.59456      5.61067        -0.139238     -0.829109     -0.583969
C     10.62556      6.59456     15.36773        -0.004524     -0.501121      0.545325
C     10.62556     14.38384      5.61067         0.192405      1.214648     -0.335679
C     10.35284     14.38384     15.36773        -0.008591      0.888472      0.396333
C      6.59456      5.61067     10.35284         0.262538     -1.075771      0.313193
C      6.59456     15.36773     10.62556        -0.947198      0.221140      0.097095
C     14.38384      5.61067     10.62556         0.281937     -0.626833     -0.350190
C     14.38384     15.36773     10.35284         0.157113      0.364932     -0.071739
C     10.40319      3.19606      7.29314         0.003899      0.910066     -0.420160
C     10.35913      4.25547      6.23373         0.066499     -0.527858      0.127357
C      0.08601      7.29314      7.29314        -0.040627     -0.925034     -0.203554
C      0.13007      6.23373      6.23373        -0.066816      0.228683      0.410234
C      0.08601      3.19606      3.19606         0.022759      1.441112      0.240611
C      0.13007      4.25547      4.25547        -0.007051     -0.566533     -0.291525
C     10.40319      7.29314      3.19606        -0.003785     -0.324710      0.255359
C     10.35913      6.23373      4.25547         0.031356      0.022284     -0.723767
C      7.29314     10.40319      3.19606        -0.277194      0.018576      0.525807
C      6.23373     10.35913      4.25547         0.128065      0.042579     -0.058020
C      7.29314      0.08601      7.29314        -0.967460     -0.080173     -0.282756
C      6.23373      0.13007      6.23373         0.844981     -0.201280      0.416359
C      3.19606      0.08601      3.19606         0.828117     -0.037228      0.537386
C      4.25547      0.13007      4.25547        -0.533465     -0.111222     -0.654463
C      3.19606     10.40319      7.29314         0.576375     -0.013226     -0.790666
C      4.25547     10.35913      6.23373        -0.252388      0.067693      0.224311
C      3.19606      7.29314     10.40319         0.315929     -1.307400      0.017371
C      4.25547      6.23373     10.35913        -1.096950      0.032843      0.124334
C      7.29314      7.29314      0.08601        -0.454332     -0.438232     -0.017738
C      6.23373      6.23373      0.13007         0.626351      0.225829      0.024737
C      3.19606      3.19606      0.08601         0.464948      0.332925     -0.039520
C      4.25547      4.25547      0.13007        -0.140146     -0.583371     -0.047661
C      7.29314      3.19606     10.40319        -0.410623      0.474086      0.055665
C      6.23373      4.25547     10.35913         0.259096     -0.764858      0.147345
O     10.43466      3.58206      8.50569        -0.024415      0.033968      0.415301
O     10.54374     17.39634      8.50569         0.071382     -0.051940      0.291245
O     10.54374      3.58206     12.47271         0.028053     -0.128323     -0.119083
O     10.43466     17.39634     12.47271        -0.024969     -0.168542     -0.514990
O      8.50569     10.43466      3.58206         0.279196     -0.022180      0.009607
O      8.50569     10.54374     17.39634         0.850379     -0.059384     -0.175173
O     12.47271     10.54374      3.58206        -0.739910      0.087593      0.069402
O     12.47271     10.43466     17.39634        -0.479521      0.038691     -0.064651
O      3.58206      8.50569     10.43466         0.164025      1.088673     -0.047475
O     17.39634      8.50569     10.54374        -0.155785      0.603943      0.064338
O      3.58206     12.47271     10.54374         0.094791     -0.436823      0.030720
O     17.39634     12.47271     10.43466        -0.144577     -0.579341     -0.031338
O      3.58206     10.43466      8.50569         0.058461     -0.093979      0.613002
O     17.39634     10.54374      8.50569        -0.001539      0.098786      0.377457
O      3.58206     10.54374     12.47271         0.041304      0.036728     -0.502588
O     17.39634     10.43466     12.47271        -0.228754     -0.043006     -0.644334
O     10.43466      8.50569      3.58206        -0.042387      0.440372      0.140385
O     10.54374      8.50569     17.39634        -0.077688      0.743888     -0.228301
O     10.54374     12.47271      3.58206         0.020644     -0.975881      0.104538
O     10.43466     12.47271     17.39634         0.070151     -0.833308     -0.230817
O      8.50569      3.58206     10.43466         0.593056      0.149115     -0.055831
O      8.50569     17.39634     10.54374         0.550027     -0.178200     -0.001722
O     12.47271      3.58206     10.54374        -0.618783      0.195256      0.002380
O     12.47271     17.39634     10.43466        -0.268496      0.069840     -0.044132
O     11.90042     11.90042     19.56718        -0.269179     -0.315146      0.216604
O     19.56718     19.56718     19.56718         0.327486      0.297444      0.227518
O     19.56718     11.90042     11.90042         0.317191     -0.259128     -0.234378
O     11.90042     19.56718     11.90042        -0.245802      0.298584     -0.338438
O      9.45224      1.03696      9.45224         0.000997      0.061720     -0.148375
O      1.03696      9.45224      9.45224         0.076692     -0.072736     -0.190375
O      1.03696      1.03696      1.03696         0.106351      0.173104      0.019776
O      9.45224      9.45224      1.03696        -0.099808     -0.114535      0.000252
Zr     10.48920      2.52580     10.48920        -0.081196     -0.205525     -0.011961
Zr     10.48920     18.45260     10.48920        -0.102149      0.178290      0.218593
Zr     10.48920     10.48920      2.52580        -0.054869     -0.458486     -0.174418
Zr     10.48920     10.48920     18.45260        -0.113430      0.055157      0.484270
Zr      2.52580     10.48920     10.48920        -0.320149      0.299328      0.352956
Zr     18.45260     10.48920     10.48920         0.157122      0.005044     -0.073241
Pd     13.64041      8.95289      9.13035        -0.017112     -0.022287      0.020714
Pd      5.69606      9.72020      9.91614         0.074576      0.012608      0.010306
Pd      6.92087     11.23168     11.74251        -0.089989      0.072369     -0.025870
Pd     12.17136     13.11128      7.36205        -0.003957     -0.022567     -0.014906
Pd     12.14873      7.85185      7.15664        -0.006318     -0.020221     -0.076106
Pd      8.28889      7.09004      6.53701        -0.010777     -0.039105     -0.028827
Pd     10.80503     11.31498      5.57775         0.056929      0.002720      0.019821
Pd     14.69601      8.52824      6.69577        -0.081331      0.039714      0.028846
Pd      9.69471     11.75491      8.06838        -0.044469      0.026610     -0.002950
Pd      6.67573      6.81198     12.30308         0.018066     -0.016649      0.047942
Pd      6.44188      7.51265      8.32233        -0.069329     -0.001734     -0.027221
Pd      7.06190      8.94570     13.81593        -0.073997     -0.022246     -0.010384
Pd     11.72201      6.56357      9.45425         0.021440     -0.048115     -0.035333
Pd      9.79485      9.27596      6.88023         0.020406     -0.002127      0.000521
Pd      9.04834     13.93026      9.44301         0.003960      0.015261      0.033062
Pd     10.11076      7.07702     11.45139         0.018292     -0.056411     -0.027894
Pd     10.58728      8.96946      9.48150        -0.069866      0.012881      0.005174
Pd      9.39740     11.23113     10.66753        -0.009925      0.012139     -0.067124
Pd      8.96844      6.94347      9.07744        -0.001843      0.046810      0.075577
Pd      8.85994      7.04206     13.75431        -0.079610     -0.019609      0.041250
Pd      8.11260      8.83744     11.33339        -0.041815      0.011526     -0.004661
Pd     12.03566     10.49738      7.74189        -0.025576      0.058755      0.099544
Pd      7.18550     12.01029      9.20704        -0.010166      0.061680     -0.019169
Pd      8.05776      9.56073      8.76553        -0.020141     -0.016321      0.046124
Pd     14.28682      6.51382      8.45857        -0.104721      0.010765      0.019021
Pd     12.56394      8.29694     11.50250         0.036949     -0.035100     -0.042939
Pd      8.85815     11.35943     13.47882         0.004701      0.004669      0.043202
Pd     13.89206     11.92730      9.06502        -0.020776     -0.028886     -0.023324
Pd     12.84097     10.62860     13.10459         0.031844     -0.008447     -0.036488
Pd     14.68822     10.31906     11.16340        -0.023961      0.007687     -0.004809
Pd     12.02869     10.73707     10.60891         0.061834      0.085749     -0.003599
Pd     11.47844     13.16824      9.89631        -0.044445     -0.019763      0.013648
Pd     13.55513     12.85087     11.68744        -0.004606     -0.018221     -0.000403
Pd     11.01445     12.59291     12.46652         0.027327     -0.016961     -0.041036
Pd     11.12970     11.39851     14.91317        -0.060662     -0.010202     -0.009267
Pd     10.46421      9.46618     12.63258         0.044009      0.062428      0.029262
Pd      9.44024      9.36181     15.12293         0.055145     -0.030869      0.005572
Pd      8.54115     13.48747     12.00223         0.082330      0.028538     -0.022220
