152
# total energy = -1061.44790404 eVH     10.35389      5.87395      7.64558        -0.203649      0.124781      1.037081
H     10.62451     15.10445      7.64558         0.447646     -0.117880      0.774199
H     10.62451      5.87395     13.33282        -0.092161      0.099225     -0.455852
H     10.35389     15.10445     13.33282         0.092602     -0.186661     -0.400009
H      7.64558     10.35389      5.87395         0.890584      0.198500      0.219716
H      7.64558     10.62451     15.10445         0.210622     -0.022336     -0.072739
H     13.33282     10.62451      5.87395        -0.601754     -0.052283      0.165154
H     13.33282     10.35389     15.10445        -0.323183     -0.058034     -0.073574
H      5.87395      7.64558     10.35389         0.127949      0.362899     -0.077236
H     15.10445      7.64558     10.62451        -0.138015      0.451738      0.183011
H      5.87395     13.33282     10.62451         0.105576     -0.633181      0.107192
H     15.10445     13.33282     10.35389        -0.231001     -0.438518      0.091909
H      5.87395     10.35389      7.64558         0.158012      0.275579      0.382801
H     15.10445     10.62451      7.64558        -0.134552     -0.378635      0.747693
H      5.87395     10.62451     13.33282         0.036759      0.156520     -0.702273
H     15.10445     10.35389     13.33282         0.081809     -0.254124     -0.742973
H     10.35389      7.64558      5.87395        -0.154657      0.445552      0.217552
H     10.62451      7.64558     15.10445         0.368895      0.610520     -0.119864
H     10.62451     13.33282      5.87395         0.089812     -0.560267      0.103712
H     10.35389     13.33282     15.10445         0.260611     -0.723611     -0.085543
H      7.64558      5.87395     10.35389         0.478738      0.144272     -0.151465
H      7.64558     15.10445     10.62451         0.398207     -0.148415      0.424649
H     13.33282      5.87395     10.62451        -0.388244      0.159352     -0.075122
H     13.33282     15.10445     10.35389        -0.581690     -0.292983      0.120420
H     12.45634     12.45634     19.01126         0.231041      0.265285     -0.248824
H     19.01126     19.01126     19.01126        -0.261379     -0.259345     -0.230248
H     19.01126     12.45634     12.45634        -0.233897      0.275677      0.236085
H     12.45634     19.01126     12.45634         0.276654     -0.210829      0.255716
C     10.35284      5.61067      6.59456         0.280460     -0.306163     -0.797238
C     10.62556     15.36773      6.59456        -0.194218      0.639676     -0.278060
C     10.62556      5.61067     14.38384         0.254874     -0.235373      0.486474
C     10.35284     15.36773     14.38384        -0.111828      0.272389      0.264260
C      6.59456     10.35284      5.61067        -0.836702     -0.101225     -0.239186
C      6.59456     10.62556     15.36773        -0.512139      0.045390      0.342948
C     14.38384     10.62556      5.61067         0.792403     -0.034918     -0.640832
C     14.38384     10.35284     15.36773         0.265645     -0.075548      0.353997
C      5.61067      6.59456     10.35284        -0.401348     -0.360644      0.078917
C     15.36773      6.59456     10.62556         0.310834     -0.489573     -0.073434
C      5.61067     14.38384     10.62556        -0.149478      0.509583     -0.390292
C     15.36773     14.38384     10.35284         0.417878      0.845635     -0.096289
C      5.61067     10.35284      6.59456        -0.315310     -0.169471     -0.106868
C     15.36773     10.62556      6.59456         0.216297      0.286633     -0.585596
C      5.61067     10.62556     14.38384        -0.337108     -0.044647      1.202696
C     15.36773     10.35284     14.38384         0.289543     -0.059768      1.001237
C     10.35284      6.59456      5.61067         0.080014     -0.249424     -0.510723
C     10.62556      6.59456     15.36773         0.015995     -0.782969      0.123158
C     10.62556     14.38384      5.61067        -0.383941      0.175727     -0.919048
C     10.35284     14.38384     15.36773        -0.259345      0.845953      0.268600
C      6.59456      5.61067     10.35284        -0.349782     -0.288720      0.253918
C      6.59456     15.36773     10.62556        -0.284076      0.523229     -0.052302
C     14.38384      5.61067     10.62556         0.473411     -0.372093      0.059502
C     14.38384     15.36773     10.35284         0.975536      0.267029     -0.064017
C     10.40319      3.19606      7.29314         0.008697      0.547006     -0.317577
C     10.35913      4.25547      6.23373        -0.013274     -0.531255      0.417397
C      0.08601      7.29314      7.29314        -0.014087     -0.851315     -0.564015
C      0.13007      6.23373      6.23373        -0.187062      0.875785      0.150531
C      0.08601      3.19606      3.19606        -0.010342      0.412092      0.386633
C      0.13007      4.25547      4.25547         0.065593     -0.226274     -0.574579
C     10.40319      7.29314      3.19606        -0.047494     -1.050216      0.771391
C     10.35913      6.23373      4.25547         0.015682      0.342338     -0.226819
C      7.29314     10.40319      3.19606        -1.301839     -0.084162      0.323842
C      6.23373     10.35913      4.25547         0.266223      0.019696     -0.701746
C      7.29314      0.08601      7.29314        -0.828712     -0.002168     -0.411999
C      6.23373      0.13007      6.23373         0.332033      0.054721      0.127139
C      3.19606      0.08601      3.19606         0.326119      0.000167      0.430282
C      4.25547      0.13007      4.25547        -0.284424     -0.033575     -0.179940
C      3.19606     10.40319      7.29314         0.493330     -0.041018     -1.026984
C      4.25547     10.35913      6.23373        -0.318315     -0.074061      0.097535
C      3.19606      7.29314     10.40319         1.086470     -0.444592      0.009938
C      4.25547      6.23373     10.35913        -0.194413      0.166487     -0.001217
C      7.29314      7.29314      0.08601        -0.495211     -0.280902     -0.007142
C      6.23373      6.23373      0.13007         0.175831      0.163587     -0.153344
C      3.19606      3.19606      0.08601         0.354281      0.873994     -0.008253
C      4.25547      4.25547      0.13007        -0.568849     -0.187355      0.040412
C      7.29314      3.19606     10.40319        -0.195784      0.501942      0.025995
C      6.23373      4.25547     10.35913        -0.011807     -0.367217      0.044002
O     10.43466      3.58206      8.50569        -0.022788      0.134309      0.391321
O     10.54374     17.39634      8.50569         0.041724      0.054887      0.364744
O     10.54374      3.58206     12.47271         0.041481      0.193956     -0.574123
O     10.43466     17.39634     12.47271         0.028006     -0.011833     -0.456883
O      8.50569     10.43466      3.58206         0.764532     -0.060779     -0.015875
O      8.50569     10.54374     17.39634         0.851779      0.021826     -0.162107
O     12.47271     10.54374      3.58206        -0.348787      0.037568      0.081354
O     12.47271     10.43466     17.39634        -0.377940     -0.036839      0.038712
O      3.58206      8.50569     10.43466        -0.103597      0.261646     -0.077638
O     17.39634      8.50569     10.54374        -0.107520      0.446366      0.042522
O      3.58206     12.47271     10.54374         0.150278     -0.818506     -0.021627
O     17.39634     12.47271     10.43466        -0.240532     -0.636956     -0.014429
O      3.58206     10.43466      8.50569         0.129501     -0.031861      0.793138
O     17.39634     10.54374      8.50569         0.001249      0.035356      0.341413
O      3.58206     10.54374     12.47271         0.067372      0.017349     -0.460065
O     17.39634     10.43466     12.47271         0.049743      0.012656     -0.242700
O     10.43466      8.50569      3.58206        -0.056120      0.571677     -0.069329
O     10.54374      8.50569     17.39634         0.028004      0.869728     -0.206410
O     10.54374     12.47271      3.58206         0.069476     -0.371385      0.076324
O     10.43466     12.47271     17.39634        -0.055540     -0.641284     -0.198442
O      8.50569      3.58206     10.43466         0.347229      0.080945     -0.052768
O      8.50569     17.39634     10.54374         0.555969     -0.164155     -0.014861
O     12.47271      3.58206     10.54374        -0.365801      0.051081      0.035644
O     12.47271     17.39634     10.43466        -0.837711     -0.143949      0.068983
O     11.90042     11.90042     19.56718        -0.243723     -0.283288      0.238033
O     19.56718     19.56718     19.56718         0.300245      0.293766      0.250086
O     19.56718     11.90042     11.90042         0.229185     -0.305276     -0.276956
O     11.90042     19.56718     11.90042        -0.273904      0.180224     -0.275385
O      9.45224      1.03696      9.45224        -0.107758      0.086926     -0.085671
O      1.03696      9.45224      9.45224         0.126982     -0.146152     -0.173336
O      1.03696      1.03696      1.03696         0.140435      0.206855     -0.003452
O      9.45224      9.45224      1.03696        -0.212287     -0.169639      0.031344
Zr     10.48920      2.52580     10.48920        -0.004888     -0.231288      0.149029
Zr     10.48920     18.45260     10.48920        -0.306399      0.305422     -0.152124
Zr     10.48920     10.48920      2.52580         0.356189      0.397794     -0.232105
Zr     10.48920     10.48920     18.45260        -0.000226      0.020987      0.468564
Zr      2.52580     10.48920     10.48920        -0.555962      0.022022      0.339032
Zr     18.45260     10.48920     10.48920         0.275485     -0.146369      0.003954
Pd      9.21113     14.64760      9.21521         0.008196     -0.001299      0.008320
Pd      8.47943     13.21701     13.81905        -0.008698     -0.003446      0.008966
Pd     12.15750     14.11827      8.65400        -0.014431     -0.004417      0.000225
Pd     12.25214     12.75622     10.89863         0.006564     -0.012197      0.008816
Pd     11.78227      7.08486     11.88885        -0.009772     -0.013990      0.003459
Pd     11.17357     15.31524     10.91656         0.002553     -0.004029      0.024930
Pd      9.61914     13.16310     11.40551        -0.001597      0.007437     -0.006792
Pd     14.03029     12.39326      7.95577         0.000331      0.006216      0.008460
Pd     11.57747     11.76865      6.74377        -0.005628      0.003028      0.021679
Pd      7.43615      8.53080      7.18572        -0.003874      0.009352      0.008676
Pd      8.61992     12.08834      6.90906        -0.004217      0.004504     -0.000526
Pd      9.72020      9.90036      7.99873        -0.003899      0.011445      0.010768
Pd      8.47706     14.73980      6.57350        -0.001406     -0.005958      0.006140
Pd     12.02889      9.05871      6.83644        -0.001335      0.005771      0.020703
Pd      9.91376     10.03740      5.40142        -0.011828      0.010982     -0.008681
Pd      6.90228      9.22814     12.16822        -0.004922      0.001222      0.000477
Pd     12.39483      6.52844      7.66917         0.006720      0.008482     -0.002614
Pd      5.57484     10.69437     10.10697        -0.023135     -0.013932     -0.001774
Pd      7.55939      6.67556     12.70430         0.005336     -0.016524     -0.009528
Ir     11.28876      9.54330     12.83619        -0.023022     -0.016524      0.008282
Ir     13.08145      9.23759     11.07464         0.027667      0.025116     -0.005962
Ir      9.15541      8.42507     13.74997         0.004561     -0.011867      0.016834
Ir     10.27749     10.36896     15.06550        -0.001556      0.006083      0.019307
Ir      7.11165     11.91706     11.84070         0.001131     -0.014908      0.032762
Ir     14.40888     11.20352     10.31459        -0.021398     -0.029426      0.029404
Ir     12.27972     10.62332      9.05227        -0.018573      0.004953     -0.016753
Ir      8.93124     10.79424     12.88966        -0.019567      0.015179     -0.003738
Ir     10.02622     10.28739     10.61339        -0.012669     -0.007278     -0.003164
Ir     13.30675     11.19926     12.61141         0.004971      0.000914     -0.037282
Ir     11.10085     12.04120     13.33121         0.004154      0.017453     -0.010570
Ir      7.95936     11.73100      9.50866         0.011261     -0.010812     -0.007993
Ir     11.27512      8.15820      9.44610        -0.001981      0.006580     -0.019807
Ir      6.98299     13.58826      8.36774        -0.016748      0.010379      0.006171
Ir      9.05859      7.28897      8.79126        -0.005751     -0.002637      0.008008
Ir      7.73616      9.21205      9.70504         0.001350      0.020619     -0.009145
Ir     10.36572     12.33652      8.98011         0.000323      0.021951     -0.001602
Ir      9.31872      7.89642     11.24960         0.003513      0.003974     -0.019058
Ir     13.74127      8.46667      8.78784        -0.007593      0.006606      0.000220
