152
# total energy = -1110.37808267 eVH     10.35389      5.87395      7.64558        -0.356163     -0.142318      1.068691
H     10.62451     15.10445      7.64558         0.358613      0.082228      0.938616
H     10.62451      5.87395     13.33282        -0.319019     -0.697347     -1.385679
H     10.35389     15.10445     13.33282        -0.615517      0.410105     -0.327543
H      7.64558     10.35389      5.87395         0.542344     -0.530248     -0.087958
H      7.64558     10.62451     15.10445         0.373158     -0.240751      0.044718
H     13.33282     10.62451      5.87395        -0.549422      0.629028     -0.031739
H     13.33282     10.35389     15.10445        -0.528457      0.409314      0.162812
H      5.87395      7.64558     10.35389         0.146830      0.529400      0.033782
H     15.10445      7.64558     10.62451         0.432094      0.947312      0.262616
H      5.87395     13.33282     10.62451        -0.225027     -0.476612      0.362565
H     15.10445     13.33282     10.35389         0.028953     -0.305113     -0.385185
H      5.87395     10.35389      7.64558        -0.080788     -0.370832      1.442213
H     15.10445     10.62451      7.64558         0.212752      0.463960      1.294869
H      5.87395     10.62451     13.33282        -0.186092     -0.356683     -1.173071
H     15.10445     10.35389     13.33282         0.575670      0.933877     -1.525389
H     10.35389      7.64558      5.87395        -0.548959      0.504917     -0.182990
H     10.62451      7.64558     15.10445        -0.140487      0.504505      0.183241
H     10.62451     13.33282      5.87395         0.886192     -1.373551     -0.321737
H     10.35389     13.33282     15.10445         0.260075     -0.555365     -0.087847
H      7.64558      5.87395     10.35389         0.715173      0.172878     -0.153172
H      7.64558     15.10445     10.62451         1.979718      0.780258      0.210910
H     13.33282      5.87395     10.62451        -2.690380     -0.958688     -0.464072
H     13.33282     15.10445     10.35389        -0.877664     -0.049014     -0.251244
H     12.45634     12.45634     19.01126         0.271958      0.257924     -0.227222
H     19.01126     19.01126     19.01126        -0.266824     -0.254961     -0.238321
H     19.01126     12.45634     12.45634        -0.282959      0.281159      0.186649
H     12.45634     19.01126     12.45634         0.255970     -0.251267      0.236029
C     10.35284      5.61067      6.59456         0.085170     -0.501406     -1.234252
C     10.62556     15.36773      6.59456         0.171325      0.759518     -0.822265
C     10.62556      5.61067     14.38384         0.182367     -0.315489      1.805268
C     10.35284     15.36773     14.38384         0.104975      0.387553      1.805371
C      6.59456     10.35284      5.61067        -1.128866     -0.110533     -0.862581
C      6.59456     10.62556     15.36773        -0.694166     -0.101940      0.763089
C     14.38384     10.62556      5.61067         0.866679     -0.111011     -1.001602
C     14.38384     10.35284     15.36773         1.201762      0.166769      1.106610
C      5.61067      6.59456     10.35284        -0.675216     -0.856753     -0.176501
C     15.36773      6.59456     10.62556         1.970337     -0.252659     -0.183225
C      5.61067     14.38384     10.62556        -1.573890     -0.007160     -0.126840
C     15.36773     14.38384     10.35284         0.486436      0.068917      0.016069
C      5.61067     10.35284      6.59456        -0.275021      0.198907     -1.344222
C     15.36773     10.62556      6.59456         0.283336     -0.228979     -1.000008
C      5.61067     10.62556     14.38384        -0.263892      0.416532      1.445303
C     15.36773     10.35284     14.38384         0.052725     -0.444100      1.930673
C     10.35284      6.59456      5.61067        -0.183440     -0.890412     -0.685894
C     10.62556      6.59456     15.36773        -0.108336     -0.770347      1.053029
C     10.62556     14.38384      5.61067        -0.496910      2.017058     -0.776693
C     10.35284     14.38384     15.36773        -0.280195      1.427379      0.486834
C      6.59456      5.61067     10.35284        -0.966120     -0.412242      0.083672
C      6.59456     15.36773     10.62556        -1.302828      0.369046     -0.330523
C     14.38384      5.61067     10.62556         1.288937     -1.241314      0.177273
C     14.38384     15.36773     10.35284         0.435756      0.314679      0.070085
C     10.40319      3.19606      7.29314         0.001994      0.309945     -0.102169
C     10.35913      4.25547      6.23373         0.139376     -0.532894      0.019027
C      0.08601      7.29314      7.29314        -0.053115     -0.299658     -0.425139
C      0.13007      6.23373      6.23373        -0.122379      0.705621      0.032159
C      0.08601      3.19606      3.19606        -0.107455      1.631033      0.171504
C      0.13007      4.25547      4.25547        -0.086694     -0.402252     -1.232209
C     10.40319      7.29314      3.19606         0.016383     -0.430016      0.124912
C     10.35913      6.23373      4.25547         0.260988      0.081783     -0.506125
C      7.29314     10.40319      3.19606        -1.668313      0.006841      0.325634
C      6.23373     10.35913      4.25547         0.656342      0.076889     -0.609946
C      7.29314      0.08601      7.29314        -0.404865     -0.011928     -0.305938
C      6.23373      0.13007      6.23373         0.674580     -0.054880      0.264549
C      3.19606      0.08601      3.19606         0.656806     -0.016221      0.185898
C      4.25547      0.13007      4.25547        -0.372412     -0.073868     -0.524956
C      3.19606     10.40319      7.29314         0.370271      0.018895     -0.316105
C      4.25547     10.35913      6.23373        -0.725090      0.065575      0.367929
C      3.19606      7.29314     10.40319         0.295886     -0.212137     -0.006496
C      4.25547      6.23373     10.35913         0.047338      0.646074      0.091789
C      7.29314      7.29314      0.08601        -0.719004     -0.606256     -0.020272
C      6.23373      6.23373      0.13007         0.865483      1.131510     -0.073198
C      3.19606      3.19606      0.08601         0.814508      0.501798      0.008969
C      4.25547      4.25547      0.13007        -0.326720     -1.740542     -0.127049
C      7.29314      3.19606     10.40319        -0.330133      0.276114     -0.003628
C      6.23373      4.25547     10.35913         0.510091     -0.028930      0.229789
O     10.43466      3.58206      8.50569        -0.048144      0.182328      0.257902
O     10.54374     17.39634      8.50569         0.042105     -0.232508      0.484239
O     10.54374      3.58206     12.47271         0.084039     -0.062583     -0.037229
O     10.43466     17.39634     12.47271        -0.023128     -0.141036     -0.276020
O      8.50569     10.43466      3.58206         0.983697      0.184639      0.386028
O      8.50569     10.54374     17.39634         0.572406      0.084518     -0.228448
O     12.47271     10.54374      3.58206        -0.423937     -0.038271      0.186688
O     12.47271     10.43466     17.39634        -0.517963     -0.069881     -0.197289
O      3.58206      8.50569     10.43466         0.181991      0.432810     -0.030225
O     17.39634      8.50569     10.54374        -0.229937      0.715056      0.043917
O      3.58206     12.47271     10.54374         0.160622     -0.674211      0.024992
O     17.39634     12.47271     10.43466        -0.185564     -0.480453     -0.012103
O      3.58206     10.43466      8.50569         0.223248     -0.059659      0.401025
O     17.39634     10.54374      8.50569        -0.170548      0.036961      0.410437
O      3.58206     10.54374     12.47271         0.146695      0.021017     -0.306315
O     17.39634     10.43466     12.47271         0.070786     -0.049737     -0.083761
O     10.43466      8.50569      3.58206         0.000030      0.275925      0.180793
O     10.54374      8.50569     17.39634         0.070810      0.437150     -0.180441
O     10.54374     12.47271      3.58206        -0.222031     -0.967672      0.344164
O     10.43466     12.47271     17.39634        -0.084289     -0.450103     -0.245415
O      8.50569      3.58206     10.43466         0.494835      0.196108     -0.012178
O      8.50569     17.39634     10.54374         0.662905     -0.197930      0.022092
O     12.47271      3.58206     10.54374        -0.740951      0.278297      0.036480
O     12.47271     17.39634     10.43466        -0.438673     -0.202619     -0.044220
O     11.90042     11.90042     19.56718        -0.346116     -0.307549      0.259092
O     19.56718     19.56718     19.56718         0.325331      0.311679      0.282368
O     19.56718     11.90042     11.90042         0.276995     -0.276806     -0.140690
O     11.90042     19.56718     11.90042        -0.306261      0.286503     -0.234085
O      9.45224      1.03696      9.45224        -0.058654      0.071764     -0.047594
O      1.03696      9.45224      9.45224         0.035704     -0.073359     -0.072378
O      1.03696      1.03696      1.03696         0.058485      0.141367      0.102018
O      9.45224      9.45224      1.03696        -0.134752     -0.090954      0.102091
Zr     10.48920      2.52580     10.48920         0.152914     -0.166823     -0.162583
Zr     10.48920     18.45260     10.48920        -0.097155      0.180668     -0.044993
Zr     10.48920     10.48920      2.52580         0.332189     -0.309346     -0.198037
Zr     10.48920     10.48920     18.45260         0.006373     -0.086650      0.206828
Zr      2.52580     10.48920     10.48920        -0.067108      0.170434     -0.051328
Zr     18.45260     10.48920     10.48920         0.140270     -0.126889     -0.249024
Ir     12.04990     12.48446     10.46169        -0.003091     -0.000932      0.006516
Ir     11.18780      7.41736     10.29847         0.023426     -0.002258     -0.030353
Ir      8.83299      7.37324     11.56584         0.010948     -0.017494     -0.014475
Ir      7.48229     11.65610      7.66007        -0.008294     -0.008195      0.004125
Ir     11.59318     12.08789      7.12340         0.007225      0.001477     -0.000037
Ir     13.76004      8.98791      7.55134        -0.000345     -0.002373      0.003213
Ir     12.48753     13.95446      8.41982        -0.005994     -0.002395     -0.006996
Ir      9.72428     11.26266      5.56272         0.006204      0.000334     -0.012708
Ir      9.08129     13.46576      7.07753        -0.000013     -0.007186     -0.004527
Ir      9.28114      9.66452      7.52506        -0.006955      0.000534     -0.006034
Ir     13.27578      7.04061     11.95423         0.007535     -0.000745      0.002341
Ir     13.58732      7.03483      9.11760         0.010199      0.014824     -0.013697
Ir     11.03528      7.60137     12.84402         0.007183     -0.008528     -0.010149
Ir     13.60966     11.56223      8.75564        -0.001735      0.001694     -0.000668
Ir     11.50444      9.64830      6.23532         0.005597     -0.011244     -0.005383
Ir      7.15206      9.17485      8.93990        -0.000213     -0.010048     -0.013013
Ir     14.06229     11.43025     11.66035        -0.007688      0.009903     -0.004186
Ir     11.65473      9.85777      8.89179         0.009702     -0.020103     -0.011766
Ir      9.43319      9.51747     10.24720         0.014985     -0.004220     -0.014500
Ir     13.86635      9.40300     10.18688         0.000693      0.006495     -0.013143
Ir     13.81506      9.15821     12.90644         0.008543      0.001014     -0.008678
Ir     11.69039      9.76399     11.56646         0.005431      0.001745     -0.019334
Ir      9.91056     11.74750      8.97517         0.000866     -0.021104     -0.001564
Ir      9.06669      7.43542      8.82474         0.022685     -0.004274     -0.020345
Ir     11.55824      7.56975      7.77169         0.043533     -0.017791     -0.008094
Ir      9.25110      9.49027     13.01921         0.008651     -0.015464     -0.001152
Ir      7.51988     13.91317      8.99491        -0.004292     -0.008154      0.003251
Ir     10.88902     14.11390     11.95082        -0.011880     -0.007327      0.002334
Ir     10.11959     14.16285      9.52338        -0.005362     -0.001628     -0.002585
Ir      9.79484     11.69614     11.72988         0.015005     -0.002524     -0.004925
Ir      7.58797     11.58325     10.21446        -0.000690     -0.008991     -0.009536
Ir      8.36029     13.75571     11.58734        -0.008840     -0.005994     -0.001040
Ir      7.52675     11.57748     12.83053        -0.007333     -0.015455      0.005124
Ir      9.76984     11.62296     14.34532         0.000753     -0.011247      0.007534
Ir     13.48575     13.88199     12.19125        -0.012025     -0.006313      0.001059
Ir     11.99518     12.05334     13.08622         0.000536      0.004482     -0.018543
Ir     11.57415      9.80791     14.20590         0.004215     -0.012035     -0.005799
Ir      7.14801      9.37933     11.50024        -0.002920     -0.019283     -0.001206
