26
# total energy = -205.61048728 eVC      0.70369      1.25201      7.50000        -0.017201      0.006506     -0.000000
C     10.79689      6.56676      7.50000        -0.009556      0.000033      0.000000
C      0.73799     11.42795      7.50000        -0.001761      0.009746     -0.000000
C     11.53046      5.33341      7.50000         0.017201     -0.006506     -0.000000
C      1.43726      0.01866      7.50000         0.009556     -0.000033     -0.000000
C     11.49616     -4.84253      7.50000         0.001761     -0.009746      0.000000
C     10.79579     -3.64877      7.50000         0.006419     -0.004699     -0.000000
C     10.85616      4.12456      7.50000        -0.005174      0.003326      0.000000
C      2.82608      0.04399      7.50000         0.017201     -0.008261     -0.000000
C      1.43836     10.23419      7.50000        -0.006419      0.004699      0.000000
C      1.37799      2.46086      7.50000         0.005174     -0.003326     -0.000000
C      9.40807      6.54143      7.50000        -0.017201      0.008261     -0.000000
N      7.76358      0.26062      7.50000        -0.001032      0.001638     -0.000000
N      4.47057      6.32480      7.50000         0.001032     -0.001638      0.000000
N      4.00873      0.08348      7.50000        -0.023786     -0.003485      0.000000
N     10.23056     -2.60922      7.50000        -0.005396      0.002946     -0.000000
N     10.29612      3.08222      7.50000         0.002782     -0.000028     -0.000000
N      8.22542      6.50194      7.50000         0.023786      0.003485      0.000000
N      2.00359      9.19464      7.50000         0.005396     -0.002946     -0.000000
N      1.93803      3.50320      7.50000        -0.002782      0.000028     -0.000000
Ir      2.99306      7.53252      7.50000         0.002657     -0.010591      0.000000
Ir      2.98140      5.13089      7.50000         0.007981      0.006908      0.000000
Ir      6.29763      6.40895      7.50000         0.015668     -0.003458     -0.000000
Ir      9.24109     -0.94710      7.50000        -0.002657      0.010591     -0.000000
Ir      9.25275      1.45453      7.50000        -0.007981     -0.006908     -0.000000
Ir      5.93652      0.17647      7.50000        -0.015668      0.003458     -0.000000
