32
# total energy = -234.68828359 eVH      7.29794     -2.19601      0.00000         0.021883      0.008614     -0.000000
H      0.33142      4.60058      0.00000        -0.021883     -0.008614     -0.000000
H      4.71991      5.98372      0.00000         0.022867      0.005490     -0.000000
H      2.90946     -3.57914      0.00000        -0.022867     -0.005490     -0.000000
C      6.12638     -3.80109      0.00000         0.034418      0.005462     -0.000000
C      1.50298      6.20566      0.00000        -0.034418     -0.005462      0.000000
C      2.83973      6.62697      0.00000         0.031330      0.015260     -0.000000
C      4.78964     -4.22239      0.00000        -0.031330     -0.015260      0.000000
C      6.95767      2.19288      0.00000         0.142438      0.044893     -0.000000
C      4.49263      1.41596      0.00000        -0.054540     -0.017190     -0.000000
C      0.67169      0.21170      0.00000        -0.142438     -0.044893     -0.000000
C      3.13674      0.98862      0.00000         0.054540      0.017190     -0.000000
C      5.81899     -5.15709      0.00000        -0.002954      0.009372     -0.000000
C      1.81037      7.56166      0.00000         0.002954     -0.009372     -0.000000
N      4.70144      2.79079      0.00000         0.156293     -0.002736      0.000000
N      6.03010      3.18347      0.00000        -0.153383     -0.068123     -0.000000
N      6.32924     -2.49147      0.00000         0.022115     -0.043492      0.000000
N      2.92792     -0.38621      0.00000        -0.156293      0.002736     -0.000000
N      1.59927     -0.77889      0.00000         0.153383      0.068123      0.000000
N      1.30012      4.89605      0.00000        -0.022115      0.043492      0.000000
N      5.45202      0.40932      0.00000         0.126479      0.091859     -0.000000
N      6.76572      0.84944      0.00000        -0.164725     -0.032137     -0.000000
N      3.75685      5.67034      0.00000        -0.006820      0.048313     -0.000000
N      2.17734      1.99526      0.00000        -0.126479     -0.091859     -0.000000
N      0.86364      1.55513      0.00000         0.164725      0.032137      0.000000
N      3.87251     -3.26577      0.00000         0.006820     -0.048313     -0.000000
O      1.42105      8.79694      0.00000         0.003231     -0.010250     -0.000000
O      6.20832     -6.39236      0.00000        -0.003231      0.010250     -0.000000
Ir      6.81485     -8.31680      0.00000         0.000916     -0.002906     -0.000000
Ir      0.81451     10.72138      0.00000        -0.000916      0.002906     -0.000000
Ir      2.98812      3.82486      0.00000        -0.001641      0.005207     -0.000000
Ir      4.64125     -1.42028      0.00000         0.001641     -0.005207     -0.000000
