14
# total energy = -118.06538018 eVC      2.49881      8.11305     -0.00000        -0.019940      0.022335     -0.000000
C      4.84343      8.11305      0.00000         0.019940      0.022335      0.000000
C      2.39602      1.43479      0.00000         0.019940     -0.022335      0.000000
C      0.05140      1.43479     -0.00000        -0.019940     -0.022335      0.000000
C      1.96360      2.80886      0.00000        -0.015777      0.033522      0.000000
C      0.48382      2.80886     -0.00000         0.015777      0.033522     -0.000000
C      2.93123      6.73898     -0.00000         0.015777     -0.033522     -0.000000
C      4.41101      6.73898      0.00000        -0.015777     -0.033522      0.000000
C      1.22371      8.73060     -0.00000         0.000000     -0.011492      0.000000
C      3.67112      0.81724     -0.00000         0.000000      0.011492     -0.000000
C      1.22371      0.60611     -0.00000         0.000000     -0.006538      0.000000
C      3.67112      8.94173     -0.00000         0.000000      0.006538     -0.000000
Ir      2.44741      4.77392     -0.00000         0.000000      0.000000      0.000000
Ir     -0.00000      4.77392     -0.00000         0.000000      0.000000      0.000000
