8
# total energy = -53.48281220 eVC      1.14292     13.21033      0.00000        -0.000000     -0.417164      0.000000
C      1.14292      4.07587     -0.00000        -0.000000      0.417164      0.000000
O      1.14292      5.26735      0.00000        -0.000000     -0.079646      0.000000
O      1.14292     12.01885     -0.00000        -0.000000      0.079646      0.000000
O     -0.00000     13.97714      0.00000         0.000000      0.213236      0.000000
O      0.00000      3.30906     -0.00000        -0.000000     -0.213236     -0.000000
Ir     -0.00000      8.64310      0.00000        -0.000000      0.000000      0.000000
Ir     -0.00000      0.00000      0.00000        -0.000000      0.000000      0.000000
