152
# total energy = -1004.12464079 eVH     10.35389      5.87395      7.64558        -0.292526      0.274925      0.557720
H     10.62451     15.10445      7.64558        -0.269129     -0.139900      0.718236
H     10.62451      5.87395     13.33282         0.460915      0.047244     -0.945032
H     10.35389     15.10445     13.33282         0.074733     -0.194714     -0.516954
H      7.64558     10.35389      5.87395         0.448337      0.070566      0.094025
H      7.64558     10.62451     15.10445         0.808620      0.621966     -0.021623
H     13.33282     10.62451      5.87395        -0.446559     -0.108010      0.308312
H     13.33282     10.35389     15.10445        -0.666997     -0.141620     -0.050345
H      5.87395      7.64558     10.35389         0.098752      1.755722      0.213072
H     15.10445      7.64558     10.62451        -0.092641      0.491935      0.115135
H      5.87395     13.33282     10.62451         0.210816     -0.760259      0.072722
H     15.10445     13.33282     10.35389         0.233819     -1.423363     -0.332139
H      5.87395     10.35389      7.64558         0.072537      0.078680      0.621984
H     15.10445     10.62451      7.64558        -0.241367      0.764017      1.313035
H      5.87395     10.62451     13.33282        -0.050315      0.464035     -1.331088
H     15.10445     10.35389     13.33282         0.152461     -0.112446     -0.784051
H     10.35389      7.64558      5.87395         0.243844      1.339138      0.210525
H     10.62451      7.64558     15.10445         0.586569      0.880983     -0.076785
H     10.62451     13.33282      5.87395        -0.586021     -0.792658      0.189982
H     10.35389     13.33282     15.10445        -0.114070     -0.527093     -0.286005
H      7.64558      5.87395     10.35389         1.134757     -0.327420     -0.191830
H      7.64558     15.10445     10.62451         0.684453     -0.214073     -0.011206
H     13.33282      5.87395     10.62451        -0.632519      0.110391      0.588829
H     13.33282     15.10445     10.35389        -0.348682     -0.047891     -0.108122
H     12.45634     12.45634     19.01126         0.271378      0.244212     -0.233908
H     19.01126     19.01126     19.01126        -0.266797     -0.274898     -0.213032
H     19.01126     12.45634     12.45634        -0.271895      0.256040      0.232742
H     12.45634     19.01126     12.45634         0.258354     -0.280206      0.226715
C     10.35284      5.61067      6.59456        -0.114285     -0.814093     -0.691411
C     10.62556     15.36773      6.59456         0.109200      0.364383     -0.267244
C     10.62556      5.61067     14.38384        -0.078147     -0.652255      0.618906
C     10.35284     15.36773     14.38384        -0.016771      0.216313      0.519413
C      6.59456     10.35284      5.61067        -0.725518      0.092588     -0.520745
C      6.59456     10.62556     15.36773        -0.982129      0.209222      0.760202
C     14.38384     10.62556      5.61067         0.927066      0.021606     -0.996498
C     14.38384     10.35284     15.36773         0.946137     -0.071649      0.504481
C      5.61067      6.59456     10.35284        -0.810717     -0.913023     -0.464908
C     15.36773      6.59456     10.62556         0.744048      0.014036     -0.196537
C      5.61067     14.38384     10.62556        -0.205353      0.919896     -0.029270
C     15.36773     14.38384     10.35284         0.306420      1.488429     -0.068235
C      5.61067     10.35284      6.59456        -0.320965     -0.002436     -0.771222
C     15.36773     10.62556      6.59456         0.403949     -0.421142     -0.848860
C      5.61067     10.62556     14.38384        -0.380214     -0.014762      1.060435
C     15.36773     10.35284     14.38384         0.274366     -0.025131      0.934383
C     10.35284      6.59456      5.61067        -0.041601     -1.050507     -0.295471
C     10.62556      6.59456     15.36773         0.010008     -0.768927      0.607248
C     10.62556     14.38384      5.61067         0.096383      0.943043     -0.458489
C     10.35284     14.38384     15.36773        -0.022829      0.732703      0.346503
C      6.59456      5.61067     10.35284        -0.735138     -1.158736      0.175994
C      6.59456     15.36773     10.62556        -0.734639      0.122731      0.070787
C     14.38384      5.61067     10.62556        -0.048272     -0.484964     -0.404377
C     14.38384     15.36773     10.35284         0.063598      0.613697     -0.070086
C     10.40319      3.19606      7.29314         0.006018      0.583573     -0.813400
C     10.35913      4.25547      6.23373         0.004149     -0.460979      0.128683
C      0.08601      7.29314      7.29314        -0.031729     -1.068429     -0.273705
C      0.13007      6.23373      6.23373        -0.042222      0.406993      0.475724
C      0.08601      3.19606      3.19606         0.037294      1.171426      0.221780
C      0.13007      4.25547      4.25547         0.005121     -0.431296     -0.425847
C     10.40319      7.29314      3.19606        -0.015416     -0.646079      0.198349
C     10.35913      6.23373      4.25547        -0.038541      0.122488     -0.663544
C      7.29314     10.40319      3.19606        -0.446332      0.015379      0.232882
C      6.23373     10.35913      4.25547         0.199671      0.051594     -0.112838
C      7.29314      0.08601      7.29314        -1.245800     -0.077763     -0.409264
C      6.23373      0.13007      6.23373         0.678811     -0.194391      0.370680
C      3.19606      0.08601      3.19606         1.216922     -0.013580      0.261636
C      4.25547      0.13007      4.25547        -0.606699     -0.129512     -0.203346
C      3.19606     10.40319      7.29314         0.536967      0.031489     -0.259114
C      4.25547     10.35913      6.23373        -0.208696      0.060052      0.178871
C      3.19606      7.29314     10.40319         0.283922     -0.538203      0.051710
C      4.25547      6.23373     10.35913        -0.956212     -0.011351      0.155865
C      7.29314      7.29314      0.08601        -0.466276     -0.435117     -0.019519
C      6.23373      6.23373      0.13007         0.430459      0.296766      0.065444
C      3.19606      3.19606      0.08601         0.623769      0.463681     -0.020116
C      4.25547      4.25547      0.13007        -0.147611     -0.794607     -0.102740
C      7.29314      3.19606     10.40319        -0.367259      0.451901      0.052800
C      6.23373      4.25547     10.35913         0.601049     -0.680175      0.194775
O     10.43466      3.58206      8.50569         0.056655      0.228613      0.708663
O     10.54374     17.39634      8.50569         0.052607     -0.023537      0.311645
O     10.54374      3.58206     12.47271         0.003481     -0.044047     -0.243880
O     10.43466     17.39634     12.47271        -0.032951     -0.087858     -0.357234
O      8.50569     10.43466      3.58206         0.588189     -0.049245      0.151888
O      8.50569     10.54374     17.39634         0.876955     -0.079250     -0.138028
O     12.47271     10.54374      3.58206        -0.882199      0.148019      0.130085
O     12.47271     10.43466     17.39634        -0.597199      0.040049     -0.184216
O      3.58206      8.50569     10.43466         0.179384      0.641956     -0.039143
O     17.39634      8.50569     10.54374        -0.141477      0.624060      0.020109
O      3.58206     12.47271     10.54374         0.113210     -0.563022      0.044743
O     17.39634     12.47271     10.43466        -0.178103     -0.564138     -0.056311
O      3.58206     10.43466      8.50569         0.095408     -0.040589      0.385372
O     17.39634     10.54374      8.50569         0.064304      0.102158      0.339343
O      3.58206     10.54374     12.47271        -0.028163      0.025681     -0.227617
O     17.39634     10.43466     12.47271        -0.106958     -0.029283     -0.397220
O     10.43466      8.50569      3.58206        -0.048602      0.667677      0.188321
O     10.54374      8.50569     17.39634        -0.086536      0.818721     -0.142631
O     10.54374     12.47271      3.58206         0.127420     -0.940092      0.175841
O     10.43466     12.47271     17.39634         0.011188     -0.441610     -0.049403
O      8.50569      3.58206     10.43466         0.558484      0.147159     -0.050972
O      8.50569     17.39634     10.54374         0.587690     -0.163096      0.016874
O     12.47271      3.58206     10.54374        -0.728308      0.121671      0.020372
O     12.47271     17.39634     10.43466        -0.508403     -0.129328     -0.029169
O     11.90042     11.90042     19.56718        -0.322568     -0.266748      0.245015
O     19.56718     19.56718     19.56718         0.295237      0.324636      0.206838
O     19.56718     11.90042     11.90042         0.343938     -0.286592     -0.246206
O     11.90042     19.56718     11.90042        -0.286494      0.348428     -0.217897
O      9.45224      1.03696      9.45224        -0.041959      0.104428     -0.120729
O      1.03696      9.45224      9.45224         0.068854     -0.032046     -0.106023
O      1.03696      1.03696      1.03696         0.059526      0.087242      0.109293
O      9.45224      9.45224      1.03696        -0.034657     -0.026433      0.101068
Zr     10.48920      2.52580     10.48920        -0.091237     -0.231296      0.181336
Zr     10.48920     18.45260     10.48920         0.026322      0.058674      0.065874
Zr     10.48920     10.48920      2.52580        -0.296934     -0.203334     -0.414392
Zr     10.48920     10.48920     18.45260         0.190258      0.013825      0.336196
Zr      2.52580     10.48920     10.48920        -0.128088     -0.050909     -0.062565
Zr     18.45260     10.48920     10.48920         0.103104     -0.039864      0.129526
Pd     12.67215      8.20445      9.70224        -0.107590      0.069338     -0.023531
Pd      6.81679      9.62031     10.51274        -0.071316      0.042575     -0.058681
Pd      6.94614     11.80173     11.95801        -0.044347     -0.002540     -0.059760
Pd     12.25266     13.51951      7.30234         0.015157     -0.022702     -0.012061
Pd     12.13685      7.93792      7.05829        -0.020001     -0.033167     -0.020382
Pd      8.52081      7.43025      6.95851         0.019761     -0.078501      0.056802
Pd     11.57082     11.49691      5.67130        -0.001606     -0.051541     -0.021038
Pd     14.56409      8.80028      7.82564        -0.113042      0.063659     -0.014948
Pd      9.94280     11.77500      7.83069        -0.076047     -0.003907      0.016501
Pd      7.11070      7.17320     11.98512        -0.054910     -0.013445     -0.010652
Pd      6.42219      7.77275      8.50091         0.081154      0.027356     -0.055780
Pd      7.32017      9.24945     13.51198        -0.012555     -0.038586     -0.060928
Pd     11.32148      6.04515      9.21752        -0.020999      0.037113      0.067566
Pd      9.92740      9.60496      6.23753         0.028446      0.025555      0.025985
Pd      9.12782     13.89999      9.25536         0.017352     -0.052421      0.044827
Pd     10.82186      7.11343     11.55060         0.061038      0.043437     -0.047370
Pd     10.31998      9.04839      8.86755         0.158230      0.024086      0.104795
Pd      9.25375     11.47100     10.39964         0.049186     -0.024562      0.071987
Pd      8.82227      7.17286      9.67541         0.057389     -0.072613     -0.074668
Pd      9.01591      7.25165     13.75659         0.052605     -0.004066     -0.055004
Pd      9.13082      9.10490     11.52546         0.071518     -0.002264      0.014151
Pd     12.38492     10.56818      8.07652        -0.025278     -0.012380      0.052739
Pd      6.95792     12.06863      9.24172         0.038195      0.044443      0.007886
Pd      8.04405      9.90726      8.16773        -0.055455     -0.034601      0.036934
Pd     13.96849      6.27841      8.46241         0.021196      0.005722      0.004285
Pd     13.23388      8.12163     12.23132         0.103728      0.036218     -0.024237
Pd      9.17737     11.28809     13.22920         0.106325      0.009726      0.006186
Pd     14.10898     12.43780      8.79062         0.001446      0.004922     -0.018433
Pd     13.17971     10.72533     12.87835         0.012217      0.063465      0.080692
Pd     14.25271     10.23580     10.32468        -0.000067     -0.029778      0.053989
Pd     11.59771     10.31580     10.84309        -0.095856     -0.008812     -0.006452
Pd     11.56111     12.89086      9.75338        -0.079651      0.052486      0.033461
Pd     13.71798     12.81023     11.47323        -0.021445      0.001862      0.019327
Pd     11.27809     12.55502     12.32338        -0.097022      0.113909      0.048722
Pd     11.38803     11.46624     14.78266        -0.010968     -0.059573     -0.045309
Pd     11.07370      9.17448     13.32831         0.000242      0.033671     -0.041368
Pd      9.48059      9.60489     15.34617        -0.012712      0.025646     -0.004290
Pd      8.94877     13.69099     11.95004        -0.012477      0.019402     -0.038392
