35
# total energy = -230.85111322 eVC      4.82888      9.03606      7.49840        -0.041779     -0.027859     -0.000000
C      7.18342      2.97624      7.49840         0.041779      0.027859      0.000000
C      2.97624      4.82888      7.49840         0.027859     -0.041779      0.000000
C      9.03606      7.18342      7.49840        -0.027859      0.041779      0.000000
C      7.18342      9.03606      7.49840         0.041779     -0.027859      0.000000
C      4.82888      2.97624      7.49840        -0.041779      0.027859     -0.000000
C      9.03606      4.82888      7.49840        -0.027859     -0.041779     -0.000000
C      2.97624      7.18342      7.49840         0.027859      0.041779     -0.000000
C      8.46583      8.46583      7.49840        -0.005398     -0.005398     -0.000000
C      3.54647      3.54647      7.49840         0.005398      0.005398     -0.000000
C      3.54647      8.46583      7.49840         0.005398     -0.005398     -0.000000
C      8.46583      3.54647      7.49840        -0.005398      0.005398     -0.000000
C     11.28800      0.72430      7.49840        -0.041756      0.041756     -0.000000
C      0.72430     11.28800      7.49840         0.041756     -0.041756     -0.000000
C     11.28800     11.28800      7.49840        -0.041756     -0.041756     -0.000000
C      0.72430      0.72430      7.49840         0.041756      0.041756      0.000000
N      6.00615      8.35317      7.49840         0.000000     -0.025913      0.000000
N      6.00615      3.65913      7.49840        -0.000000      0.025913     -0.000000
N      3.65913      6.00615      7.49840         0.025913      0.000000     -0.000000
N      8.35317      6.00615      7.49840        -0.025913      0.000000     -0.000000
O      4.70904     10.37483      7.49840         0.018762      0.009965     -0.000000
O      7.30326      1.63747      7.49840        -0.018762     -0.009965      0.000000
O      1.63747      4.70904      7.49840        -0.009965      0.018762     -0.000000
O     10.37483      7.30326      7.49840         0.009965     -0.018762     -0.000000
O      7.30326     10.37483      7.49840        -0.018762      0.009965     -0.000000
O      4.70904      1.63747      7.49840         0.018762     -0.009965     -0.000000
O     10.37483      4.70904      7.49840         0.009965      0.018762      0.000000
O      1.63747      7.30326      7.49840        -0.009965     -0.018762     -0.000000
Au      9.90966      2.10264      7.49840        -0.036334      0.036334     -0.000000
Au      2.10264      9.90966      7.49840         0.036334     -0.036334     -0.000000
Au      9.90966      9.90966      7.49840        -0.036334     -0.036334     -0.000000
Au      2.10264      2.10264      7.49840         0.036334      0.036334     -0.000000
Au      6.00615      6.00615      7.49840         0.000000      0.000000     -0.000000
Au      6.00615     -0.00000      7.49840         0.000000      0.000000     -0.000000
Au      0.00000      6.00615      7.49840         0.000000      0.000000     -0.000000
