26
# total energy = -205.61030353 eVC      0.70339      1.25081      7.50000         0.000332      0.028159     -0.000000
C     10.79586      6.56621      7.50000        -0.020859      0.011013     -0.000000
C      0.73819     11.42992      7.50000        -0.010882     -0.023279     -0.000000
C     11.53076      5.33461      7.50000        -0.000332     -0.028159     -0.000000
C      1.43829      0.01921      7.50000         0.020859     -0.011013     -0.000000
C     11.49596     -4.84450      7.50000         0.010882      0.023279     -0.000000
C     10.79642     -3.65058      7.50000        -0.008095      0.013472     -0.000000
C     10.85599      4.12603      7.50000        -0.000850     -0.018582      0.000000
C      2.82755      0.04310      7.50000         0.004365      0.006854      0.000000
C      1.43773     10.23601      7.50000         0.008095     -0.013472     -0.000000
C      1.37816      2.45940      7.50000         0.000850      0.018582      0.000000
C      9.40660      6.54232      7.50000        -0.004365     -0.006854      0.000000
N      7.76550      0.25906      7.50000        -0.017766      0.009468     -0.000000
N      4.46865      6.32636      7.50000         0.017766     -0.009468     -0.000000
N      4.01017      0.08431      7.50000        -0.035370     -0.005380     -0.000000
N     10.23008     -2.61163      7.50000         0.002013      0.014123     -0.000000
N     10.29616      3.08351      7.50000         0.001446     -0.001391     -0.000000
N      8.22398      6.50111      7.50000         0.035370      0.005380     -0.000000
N      2.00407      9.19706      7.50000        -0.002013     -0.014123     -0.000000
N      1.93799      3.50191      7.50000        -0.001446      0.001391      0.000000
Ir      2.99031      7.53211      7.50000         0.007749      0.014806     -0.000000
Ir      2.98020      5.13148      7.50000         0.000421     -0.016658      0.000000
Ir      6.29674      6.40864      7.50000        -0.007464      0.002039     -0.000000
Ir      9.24384     -0.94669      7.50000        -0.007749     -0.014806     -0.000000
Ir      9.25395      1.45394      7.50000        -0.000421      0.016658     -0.000000
Ir      5.93741      0.17678      7.50000         0.007464     -0.002039     -0.000000
