152
# total energy = -1024.18891167 eVH     10.35389      5.87395      7.64558         0.526142      0.061046      0.767354
H     10.62451     15.10445      7.64558         0.023128     -0.178144      0.558620
H     10.62451      5.87395     13.33282         0.142005      0.157647     -0.644394
H     10.35389     15.10445     13.33282        -0.379921     -0.066703     -0.726144
H      7.64558     10.35389      5.87395         0.330165     -0.006716      0.186546
H      7.64558     10.62451     15.10445         0.869960     -0.329429     -0.021565
H     13.33282     10.62451      5.87395        -0.749411      0.005558      0.178228
H     13.33282     10.35389     15.10445        -0.881741     -0.396184      0.209699
H      5.87395      7.64558     10.35389         0.216117      0.622139     -0.014384
H     15.10445      7.64558     10.62451        -0.146155      0.406105     -0.047817
H      5.87395     13.33282     10.62451         0.169142     -0.499950     -0.092668
H     15.10445     13.33282     10.35389        -0.113217     -1.110196      0.016386
H      5.87395     10.35389      7.64558         0.138407      0.119506      0.466549
H     15.10445     10.62451      7.64558         0.056313      0.145967      1.090795
H      5.87395     10.62451     13.33282         0.114810     -0.022435     -0.403561
H     15.10445     10.35389     13.33282        -0.087498     -0.158338     -0.623082
H     10.35389      7.64558      5.87395         0.083173      0.879303      0.212375
H     10.62451      7.64558     15.10445         0.016871      0.288600     -0.180426
H     10.62451     13.33282      5.87395        -0.060382     -0.536335      0.289989
H     10.35389     13.33282     15.10445        -0.465419     -0.674425     -0.045384
H      7.64558      5.87395     10.35389         0.474981      0.116598      0.060611
H      7.64558     15.10445     10.62451         0.848533     -0.269499     -0.016560
H     13.33282      5.87395     10.62451        -0.530935      0.165429     -0.074258
H     13.33282     15.10445     10.35389        -0.621312     -0.064525      0.235199
H     12.45634     12.45634     19.01126         0.240379      0.278081     -0.231885
H     19.01126     19.01126     19.01126        -0.254868     -0.242302     -0.246216
H     19.01126     12.45634     12.45634        -0.256815      0.272170      0.221782
H     12.45634     19.01126     12.45634         0.226377     -0.262022      0.246264
C     10.35284      5.61067      6.59456        -0.180226     -0.595424      0.055774
C     10.62556     15.36773      6.59456        -0.004269      0.430088     -0.754688
C     10.62556      5.61067     14.38384        -0.039113     -0.097145      0.773840
C     10.35284     15.36773     14.38384         0.160207      0.695543      0.187972
C      6.59456     10.35284      5.61067        -0.389792     -0.029516     -0.262833
C      6.59456     10.62556     15.36773        -1.019507      0.338788      0.411745
C     14.38384     10.62556      5.61067         0.409675      0.296318     -0.598161
C     14.38384     10.35284     15.36773         1.010527     -0.023853      0.390782
C      5.61067      6.59456     10.35284        -0.379635     -0.509928      0.228284
C     15.36773      6.59456     10.62556         0.185043     -0.530287      0.030002
C      5.61067     14.38384     10.62556        -0.144521      0.522896      0.001580
C     15.36773     14.38384     10.35284         0.341675     -0.017787     -0.128231
C      5.61067     10.35284      6.59456        -0.300772     -0.050552     -0.866121
C     15.36773     10.62556      6.59456         0.703630     -0.317241     -1.137947
C      5.61067     10.62556     14.38384        -0.482493     -0.008577      0.262198
C     15.36773     10.35284     14.38384         0.665092     -0.125478      1.125353
C     10.35284      6.59456      5.61067        -0.266041     -0.478673     -0.784264
C     10.62556      6.59456     15.36773         0.050758     -0.296421      0.112834
C     10.62556     14.38384      5.61067         0.152775      1.165297     -0.411687
C     10.35284     14.38384     15.36773         0.211196      0.135811      0.661806
C      6.59456      5.61067     10.35284        -0.390827     -0.734017      0.061251
C      6.59456     15.36773     10.62556        -1.223620      0.287193      0.072088
C     14.38384      5.61067     10.62556         0.800534     -0.262238      0.022686
C     14.38384     15.36773     10.35284        -0.507297      0.735429     -0.362650
C     10.40319      3.19606      7.29314        -0.013931      0.862569     -0.398026
C     10.35913      4.25547      6.23373         0.028508     -0.481113      0.587122
C      0.08601      7.29314      7.29314        -0.011466     -0.497944     -0.390411
C      0.13007      6.23373      6.23373        -0.020225      0.022255      0.099543
C      0.08601      3.19606      3.19606        -0.016347      1.095972      0.188450
C      0.13007      4.25547      4.25547        -0.060598     -0.216071     -0.248783
C     10.40319      7.29314      3.19606        -0.002410     -0.927081      0.462558
C     10.35913      6.23373      4.25547         0.026575      0.476720     -0.616725
C      7.29314     10.40319      3.19606        -0.442640      0.044304      0.815333
C      6.23373     10.35913      4.25547         0.242999      0.091204     -0.116271
C      7.29314      0.08601      7.29314        -0.497138     -0.028325     -0.252532
C      6.23373      0.13007      6.23373         0.407781     -0.063418      0.419307
C      3.19606      0.08601      3.19606         0.752389     -0.019565      0.357879
C      4.25547      0.13007      4.25547        -0.107035     -0.059518     -0.431869
C      3.19606     10.40319      7.29314         0.585564     -0.002659     -0.728868
C      4.25547     10.35913      6.23373        -0.252441      0.110253      0.238519
C      3.19606      7.29314     10.40319         0.504441     -1.358140     -0.040147
C      4.25547      6.23373     10.35913        -0.385997      0.824275      0.036772
C      7.29314      7.29314      0.08601        -0.479221     -0.231927     -0.013268
C      6.23373      6.23373      0.13007         0.170491      0.143273     -0.010210
C      3.19606      3.19606      0.08601         0.247579      0.268157     -0.021739
C      4.25547      4.25547      0.13007        -0.084007     -0.043281      0.016470
C      7.29314      3.19606     10.40319        -0.359744      0.713643      0.013065
C      6.23373      4.25547     10.35913         1.105650      0.065031      0.003927
O     10.43466      3.58206      8.50569        -0.031165      0.044229      0.444343
O     10.54374     17.39634      8.50569        -0.015258     -0.091196      0.456005
O     10.54374      3.58206     12.47271         0.052931     -0.059368     -0.172211
O     10.43466     17.39634     12.47271        -0.044716     -0.071899     -0.533848
O      8.50569     10.43466      3.58206         0.377326     -0.019961     -0.027981
O      8.50569     10.54374     17.39634         0.601059      0.030172     -0.159548
O     12.47271     10.54374      3.58206        -0.672048     -0.026527      0.159199
O     12.47271     10.43466     17.39634        -0.532903     -0.027883     -0.059324
O      3.58206      8.50569     10.43466         0.162916      1.124388     -0.001089
O     17.39634      8.50569     10.54374        -0.064385      0.392455      0.069126
O      3.58206     12.47271     10.54374         0.074580     -0.438166      0.036852
O     17.39634     12.47271     10.43466        -0.155580     -0.718280      0.012538
O      3.58206     10.43466      8.50569         0.010106     -0.073183      0.600984
O     17.39634     10.54374      8.50569        -0.092445      0.042287      0.359273
O      3.58206     10.54374     12.47271         0.025783      0.018870     -0.349040
O     17.39634     10.43466     12.47271        -0.212572      0.021198     -0.718479
O     10.43466      8.50569      3.58206         0.086919      0.815012      0.190877
O     10.54374      8.50569     17.39634         0.055066      0.664667     -0.149519
O     10.54374     12.47271      3.58206        -0.048469     -0.985258      0.242223
O     10.43466     12.47271     17.39634        -0.012727     -0.928534     -0.206700
O      8.50569      3.58206     10.43466         0.513547      0.091211     -0.022124
O      8.50569     17.39634     10.54374         0.583766     -0.227612     -0.028317
O     12.47271      3.58206     10.54374        -0.466485      0.148676      0.054908
O     12.47271     17.39634     10.43466        -0.390495      0.049594     -0.011952
O     11.90042     11.90042     19.56718        -0.271912     -0.330801      0.255957
O     19.56718     19.56718     19.56718         0.286074      0.277373      0.290884
O     19.56718     11.90042     11.90042         0.281752     -0.310716     -0.202117
O     11.90042     19.56718     11.90042        -0.269818      0.283854     -0.261486
O      9.45224      1.03696      9.45224        -0.085512      0.053192     -0.054487
O      1.03696      9.45224      9.45224         0.046961     -0.169954     -0.105445
O      1.03696      1.03696      1.03696         0.007218      0.092228      0.202708
O      9.45224      9.45224      1.03696        -0.058560     -0.082484      0.132774
Zr     10.48920      2.52580     10.48920        -0.017195     -0.097991     -0.157676
Zr     10.48920     18.45260     10.48920         0.047051      0.255139      0.010418
Zr     10.48920     10.48920      2.52580         0.003591     -0.177563     -0.542009
Zr     10.48920     10.48920     18.45260        -0.118202      0.045291      0.476575
Zr      2.52580     10.48920     10.48920        -0.363197      0.316457      0.117286
Zr     18.45260     10.48920     10.48920         0.210748      0.037805     -0.275237
Pd      8.61193      9.89522     13.27433        -0.018710      0.027167      0.047025
Pd     10.54702      9.49832     10.33675        -0.056808      0.035957      0.016811
Pd     13.44108      8.73141     12.50858         0.012406      0.011201      0.007210
Pd     10.61768     10.63290     15.12399        -0.116136      0.035888     -0.058332
Pd     13.00319     11.32662     13.45748        -0.013057     -0.012640      0.024023
Pd     14.97711     10.78683     11.28750        -0.062766     -0.075652     -0.017398
Pd      6.76463      7.92797     12.57499        -0.040624     -0.010444     -0.024534
Pd      9.25658      7.19331      9.62865         0.029539      0.064936     -0.014635
Pd      9.40635      7.47935     12.39189         0.082139      0.061405     -0.051145
Pd     11.70316      7.22090     11.09776         0.083268     -0.014135     -0.008692
Pd     11.66675      7.84358      8.46722        -0.029472      0.005412     -0.045200
Pd      7.22664     11.71356     11.62232        -0.049369     -0.026712     -0.010269
Pd      9.29665     14.45530      9.44317        -0.081268      0.035854      0.028015
Pd      8.20080     12.38917     14.19918        -0.013117      0.024460      0.054583
Pd     14.17119     14.22004      8.33582         0.007416     -0.038465     -0.032743
Pd     11.68539     13.41129      8.88917        -0.075881      0.016605     -0.044282
Pd     14.04982     11.64115      8.92966         0.049807      0.003613     -0.032765
Pd      8.77233     13.91027     12.13249         0.031750      0.000317     -0.000907
Pd     12.21232     13.85760     14.03949        -0.013571     -0.024293     -0.038722
Pd     11.42936     14.10770     11.44528        -0.022087     -0.041676     -0.047196
Pd     14.07311     13.42406     12.15788         0.008403      0.076474     -0.008885
Pd     12.34513     11.64208     10.91733         0.019180     -0.021809      0.061956
Pd     12.80123     12.63400      6.63222        -0.010381     -0.051088      0.008843
Pd     13.93533      8.91887      7.66555        -0.052411     -0.004292     -0.052275
Pd      6.97865      8.42990      8.53606        -0.010716     -0.047131      0.005404
Pd      5.59194     10.01479     10.23875        -0.014236      0.036049      0.039259
Pd      9.37150      9.41023      7.64783        -0.005742      0.018390     -0.012134
Pd      8.48822      6.91282      7.03151         0.032117      0.027153     -0.072639
Pd      9.71321     11.94753     10.56469         0.019895      0.001709      0.008749
Pd     11.62634     10.72527      8.19471         0.195010     -0.051412     -0.028351
Pd     11.67413      9.05498      6.06916         0.040532     -0.042048     -0.088907
Pd     10.26139     11.33419      5.87162         0.095719      0.033737     -0.025600
Ir     11.07406      9.55372     12.79902         0.017211      0.033059     -0.079509
Ir     13.18597      9.34640     10.04339        -0.040047     -0.029116     -0.021352
Ir     10.53026     12.04127     12.94112        -0.012346     -0.003810     -0.029258
Ir      7.75027     10.95573      9.12365        -0.098299     -0.035898      0.060650
Ir      9.39665     12.26332      8.04767         0.032672     -0.036105     -0.013810
Ir      8.08901      9.22335     10.84582        -0.054374      0.030831     -0.011091
