152
# total energy = -1005.85510364 eVH     10.35389      5.87395      7.64558         0.167935      0.089537      0.564097
H     10.62451     15.10445      7.64558        -0.109524     -0.150578      0.503095
H     10.62451      5.87395     13.33282         0.521786      0.106860     -0.627543
H     10.35389     15.10445     13.33282         0.046696     -0.172414     -0.463867
H      7.64558     10.35389      5.87395         0.356406      0.031205      0.170407
H      7.64558     10.62451     15.10445         0.752313      0.489858     -0.039139
H     13.33282     10.62451      5.87395        -0.460090      0.347174      0.116853
H     13.33282     10.35389     15.10445        -0.822898     -0.069376      0.005765
H      5.87395      7.64558     10.35389         0.280295      1.104343      0.042904
H     15.10445      7.64558     10.62451        -0.103977      0.481584      0.285244
H      5.87395     13.33282     10.62451         0.164721     -0.676413     -0.134409
H     15.10445     13.33282     10.35389        -0.057541     -0.983892     -0.236781
H      5.87395     10.35389      7.64558         0.225003      0.029262      0.465004
H     15.10445     10.62451      7.64558        -0.136137      0.465074      0.791334
H      5.87395     10.62451     13.33282         0.138095      0.345886     -0.755246
H     15.10445     10.35389     13.33282        -0.076993     -0.039688     -0.670394
H     10.35389      7.64558      5.87395         0.336592      1.117049      0.050192
H     10.62451      7.64558     15.10445         0.665609      0.630805     -0.149078
H     10.62451     13.33282      5.87395        -0.403015     -0.792998      0.246213
H     10.35389     13.33282     15.10445        -0.067441     -0.463931     -0.263821
H      7.64558      5.87395     10.35389         0.946047      0.047982     -0.254397
H      7.64558     15.10445     10.62451         0.822467     -0.185414     -0.010244
H     13.33282      5.87395     10.62451        -0.770196      0.188591      0.557685
H     13.33282     15.10445     10.35389        -0.392451     -0.113716     -0.111728
H     12.45634     12.45634     19.01126         0.241789      0.268701     -0.237332
H     19.01126     19.01126     19.01126        -0.264577     -0.244935     -0.254522
H     19.01126     12.45634     12.45634        -0.271154      0.265225      0.223391
H     12.45634     19.01126     12.45634         0.233952     -0.262577      0.270522
C     10.35284      5.61067      6.59456        -0.342915     -0.690081     -0.040284
C     10.62556     15.36773      6.59456         0.090598      0.348376     -0.264862
C     10.62556      5.61067     14.38384        -0.223380     -0.466921     -0.207119
C     10.35284     15.36773     14.38384         0.006393      0.232776      0.443700
C      6.59456     10.35284      5.61067        -0.363989      0.004719     -0.256012
C      6.59456     10.62556     15.36773        -0.375337     -0.109996      0.674384
C     14.38384     10.62556      5.61067        -0.232684     -0.447506     -0.597663
C     14.38384     10.35284     15.36773         0.988674     -0.079651      0.185758
C      5.61067      6.59456     10.35284        -0.594578     -0.082165     -0.329668
C     15.36773      6.59456     10.62556         0.561783      0.002036     -0.269903
C      5.61067     14.38384     10.62556        -0.316550      0.945700      0.054005
C     15.36773     14.38384     10.35284         0.283822      0.995964      0.048552
C      5.61067     10.35284      6.59456        -0.256291     -0.030713     -0.695251
C     15.36773     10.62556      6.59456         0.452313     -0.280707      0.141479
C      5.61067     10.62556     14.38384        -0.617705     -0.264065     -0.013005
C     15.36773     10.35284     14.38384         0.409797     -0.047205      1.028317
C     10.35284      6.59456      5.61067        -0.213108     -0.619906     -0.560335
C     10.62556      6.59456     15.36773        -0.176783     -0.065371      0.541061
C     10.62556     14.38384      5.61067         0.213954      1.054414     -0.334488
C     10.35284     14.38384     15.36773        -0.001121      0.736125      0.387911
C      6.59456      5.61067     10.35284        -0.119798     -1.036650      0.212359
C      6.59456     15.36773     10.62556        -0.987789      0.246928      0.091622
C     14.38384      5.61067     10.62556         0.372920     -0.529029     -0.373008
C     14.38384     15.36773     10.35284         0.174567      0.410710     -0.066353
C     10.40319      3.19606      7.29314         0.011030      0.760910     -0.487912
C     10.35913      4.25547      6.23373         0.077448     -0.570870      0.072383
C      0.08601      7.29314      7.29314        -0.052226     -0.535375     -0.299869
C      0.13007      6.23373      6.23373        -0.037250      0.122925      0.573152
C      0.08601      3.19606      3.19606         0.006596      1.383748      0.291142
C      0.13007      4.25547      4.25547         0.044831     -0.732667     -0.202140
C     10.40319      7.29314      3.19606         0.008696     -0.316962      0.281547
C     10.35913      6.23373      4.25547         0.022238      0.035800     -0.730779
C      7.29314     10.40319      3.19606        -0.245541      0.018297      0.567424
C      6.23373     10.35913      4.25547         0.154228      0.050441     -0.066615
C      7.29314      0.08601      7.29314        -0.623822     -0.068792     -0.344501
C      6.23373      0.13007      6.23373         0.721512     -0.104297      0.471855
C      3.19606      0.08601      3.19606         0.959352     -0.020322      0.592731
C      4.25547      0.13007      4.25547        -0.586703     -0.070606     -0.546615
C      3.19606     10.40319      7.29314         0.486510     -0.010939     -0.780661
C      4.25547     10.35913      6.23373        -0.281697      0.073229      0.207030
C      3.19606      7.29314     10.40319         0.291140     -1.278909      0.032103
C      4.25547      6.23373     10.35913        -0.972351      0.070406      0.125145
C      7.29314      7.29314      0.08601        -0.418610     -0.395750     -0.020207
C      6.23373      6.23373      0.13007         0.474977      0.237169     -0.001379
C      3.19606      3.19606      0.08601         0.471618      0.385769     -0.039179
C      4.25547      4.25547      0.13007        -0.148002     -0.638236     -0.032701
C      7.29314      3.19606     10.40319        -0.357350      0.429976      0.060874
C      6.23373      4.25547     10.35913         0.293986     -0.706117      0.143221
O     10.43466      3.58206      8.50569        -0.009417      0.085970      0.486572
O     10.54374     17.39634      8.50569         0.047394     -0.145993      0.463901
O     10.54374      3.58206     12.47271         0.036022     -0.115669     -0.177032
O     10.43466     17.39634     12.47271        -0.034649     -0.179807     -0.516010
O      8.50569     10.43466      3.58206         0.260813     -0.021140      0.009872
O      8.50569     10.54374     17.39634         0.678295      0.005242     -0.159543
O     12.47271     10.54374      3.58206        -0.833426      0.100082      0.099655
O     12.47271     10.43466     17.39634        -0.439797      0.029142     -0.082114
O      3.58206      8.50569     10.43466         0.155477      1.045175     -0.021987
O     17.39634      8.50569     10.54374        -0.160101      0.557929      0.074210
O      3.58206     12.47271     10.54374         0.094081     -0.400577      0.053001
O     17.39634     12.47271     10.43466        -0.151086     -0.530459     -0.026862
O      3.58206     10.43466      8.50569         0.081525     -0.078626      0.622685
O     17.39634     10.54374      8.50569        -0.083266      0.080169      0.494003
O      3.58206     10.54374     12.47271        -0.005906      0.033127     -0.483286
O     17.39634     10.43466     12.47271        -0.239152     -0.042025     -0.654720
O     10.43466      8.50569      3.58206        -0.037399      0.444230      0.141567
O     10.54374      8.50569     17.39634         0.011814      0.592185     -0.164126
O     10.54374     12.47271      3.58206         0.040464     -1.043746      0.144180
O     10.43466     12.47271     17.39634         0.043178     -0.748255     -0.190788
O      8.50569      3.58206     10.43466         0.544214      0.156444     -0.058456
O      8.50569     17.39634     10.54374         0.501748     -0.191535      0.010917
O     12.47271      3.58206     10.54374        -0.616289      0.209375      0.000133
O     12.47271     17.39634     10.43466        -0.241663      0.059086     -0.042405
O     11.90042     11.90042     19.56718        -0.249948     -0.289390      0.240516
O     19.56718     19.56718     19.56718         0.314899      0.299502      0.286903
O     19.56718     11.90042     11.90042         0.306516     -0.262788     -0.237950
O     11.90042     19.56718     11.90042        -0.237314      0.300845     -0.316905
O      9.45224      1.03696      9.45224        -0.006590      0.088024     -0.095496
O      1.03696      9.45224      9.45224         0.090208     -0.077202     -0.142817
O      1.03696      1.03696      1.03696         0.103449      0.182383      0.045295
O      9.45224      9.45224      1.03696        -0.100255     -0.106061      0.030473
Zr     10.48920      2.52580     10.48920        -0.121132     -0.270330     -0.001272
Zr     10.48920     18.45260     10.48920        -0.080960      0.195398      0.088838
Zr     10.48920     10.48920      2.52580        -0.106929     -0.411792     -0.245581
Zr     10.48920     10.48920     18.45260        -0.226147     -0.103360      0.354668
Zr      2.52580     10.48920     10.48920        -0.369204      0.229573      0.258470
Zr     18.45260     10.48920     10.48920         0.200814     -0.000090     -0.174303
Pd     13.61034      8.93076      9.22982        -0.010929     -0.001774      0.009406
Pd      5.66109      9.85350     10.09055        -0.013576      0.010647      0.018908
Pd      6.75566     11.78703     11.66985         0.017476     -0.002831      0.008948
Pd     12.18840     13.07753      7.32560        -0.012990     -0.008037     -0.002649
Pd     11.99628      7.83395      7.34690        -0.020222     -0.012719      0.013443
Pd      8.29091      7.03347      6.58264        -0.000751     -0.013501     -0.011810
Pd     10.88570     11.24308      5.59314        -0.037196     -0.016149      0.010720
Pd     14.54230      8.53371      6.76450        -0.025582      0.006458      0.004497
Pd      9.66679     11.79091      8.00308         0.004179     -0.003311      0.020670
Pd      6.87367      6.80409     12.26103        -0.060571     -0.010792      0.022023
Pd      6.38756      7.67740      8.26583         0.022679      0.027844     -0.006358
Pd      6.71493      8.59229     14.19519        -0.063902     -0.013041      0.012469
Pd     11.50659      6.50352      9.68944         0.009391     -0.008896      0.023736
Pd      9.67547      9.28663      6.98979        -0.029985     -0.009035      0.042407
Pd      9.01082     13.97492      9.35527         0.000420      0.011815     -0.014157
Pd      9.60361      7.30218     11.70231         0.019314     -0.000568     -0.009681
Pd     10.52032      8.96979      9.62937         0.018372     -0.001156      0.008268
Pd      9.31929     11.41330     10.60364         0.003385      0.022305      0.015430
Pd      8.87251      7.00935      9.15192         0.016029     -0.000375     -0.010262
Pd      8.61507      6.66888     14.21000        -0.005141      0.014611     -0.020098
Pd      7.77687      9.30269     11.76850        -0.010153     -0.025312      0.039032
Pd     11.97699     10.47183      7.83316         0.002139     -0.010556     -0.010001
Pd      7.13507     12.04211      9.03840         0.004036     -0.003787      0.007443
Pd      8.04528      9.57325      9.03668         0.005162     -0.003183      0.076238
Pd     14.05930      6.46834      8.48819        -0.000455      0.003023      0.000642
Pd     12.44985      8.25867     11.53082         0.013979      0.010021      0.013370
Pd      8.73824     11.50016     13.39038         0.014103      0.039249     -0.003694
Pd     13.91875     11.93394      9.01533        -0.003090      0.006231     -0.008520
Pd     12.88751     10.59554     13.07471         0.008478      0.007054     -0.010034
Pd     14.76736     10.38204     11.13535         0.001873      0.009931     -0.008521
Pd     12.07617     10.78158     10.55681        -0.001686      0.021376     -0.006939
Pd     11.45285     13.20159      9.85361         0.003631      0.028760      0.004418
Pd     13.57494     12.84940     11.65501         0.009705      0.009505     -0.003781
Pd     11.05973     12.55348     12.44776         0.016068      0.020039      0.009301
Pd     10.99029     11.24306     14.83630        -0.004137     -0.038592     -0.010035
Pd     10.45046      9.69642     12.44020         0.003267      0.015712     -0.016600
Pd      9.26756      9.21633     14.67030        -0.068386      0.009780     -0.063512
Pd      8.73418     13.72470     11.99157         0.017673      0.034409     -0.010372
