152
# total energy = -1090.15421301 eVH     10.35389      5.87395      7.64558         1.210757     -2.320970      1.331128
H     10.62451     15.10445      7.64558        -0.326877      0.885000      1.681151
H     10.62451      5.87395     13.33282         1.034491     -1.225486     -2.224526
H     10.35389     15.10445     13.33282        -0.660949      0.809270     -1.786518
H      7.64558     10.35389      5.87395         0.373155     -0.210830     -0.023803
H      7.64558     10.62451     15.10445         0.648666     -0.323489      0.151434
H     13.33282     10.62451      5.87395        -0.472764      0.020895      0.105385
H     13.33282     10.35389     15.10445        -0.583450      0.251133      0.040425
H      5.87395      7.64558     10.35389        -0.421357      1.136313      0.348806
H     15.10445      7.64558     10.62451         0.089807      0.818146     -0.021593
H      5.87395     13.33282     10.62451         0.033305     -0.490148      0.004484
H     15.10445     13.33282     10.35389         0.108248     -0.915492      0.107521
H      5.87395     10.35389      7.64558        -0.009039     -0.020491      0.626167
H     15.10445     10.62451      7.64558         0.035156      0.034373      0.369106
H      5.87395     10.62451     13.33282        -0.223133      0.377217     -0.736366
H     15.10445     10.35389     13.33282         0.384576     -0.280710      0.060035
H     10.35389      7.64558      5.87395        -0.463468      0.384179     -0.425121
H     10.62451      7.64558     15.10445         0.312358      0.846759      0.487277
H     10.62451     13.33282      5.87395        -0.172417     -1.013040     -0.225538
H     10.35389     13.33282     15.10445        -0.258200     -1.065276      0.325927
H      7.64558      5.87395     10.35389         1.073395     -0.521979      0.346306
H      7.64558     15.10445     10.62451         0.882153     -0.008566     -0.104189
H     13.33282      5.87395     10.62451        -0.922661     -0.157106      0.216140
H     13.33282     15.10445     10.35389        -0.537036      0.119860      0.051786
H     12.45634     12.45634     19.01126         0.262099      0.250059     -0.242716
H     19.01126     19.01126     19.01126        -0.258193     -0.256081     -0.238362
H     19.01126     12.45634     12.45634        -0.254785      0.262115      0.237309
H     12.45634     19.01126     12.45634         0.254526     -0.261961      0.235281
C     10.35284      5.61067      6.59456        -0.538916     -0.115301     -2.458675
C     10.62556     15.36773      6.59456         0.191261     -0.127983     -1.933321
C     10.62556      5.61067     14.38384        -0.074929     -0.811674      2.467995
C     10.35284     15.36773     14.38384         0.163462      0.147709      1.832186
C      6.59456     10.35284      5.61067        -0.561358     -0.060957     -0.397030
C      6.59456     10.62556     15.36773        -0.991296      0.024745      0.476904
C     14.38384     10.62556      5.61067         0.615023      0.010864     -0.181135
C     14.38384     10.35284     15.36773         0.820280     -0.112258      0.312280
C      5.61067      6.59456     10.35284        -0.729688     -0.886751      0.353059
C     15.36773      6.59456     10.62556         0.404079     -1.260665     -0.004655
C      5.61067     14.38384     10.62556        -0.449309      0.873732      0.028620
C     15.36773     14.38384     10.35284         0.396964      0.784855      0.101892
C      5.61067     10.35284      6.59456        -0.583816      0.082475     -1.635744
C     15.36773     10.62556      6.59456         0.697094      0.015943     -1.809526
C      5.61067     10.62556     14.38384        -0.707930      0.025524      1.950396
C     15.36773     10.35284     14.38384         0.606941     -0.097922      1.607531
C     10.35284      6.59456      5.61067         0.125799     -1.690919     -0.917011
C     10.62556      6.59456     15.36773         0.077165     -2.326487      1.303282
C     10.62556     14.38384      5.61067         0.120021      1.606366     -0.645281
C     10.35284     14.38384     15.36773         0.035062      2.177730      0.904397
C      6.59456      5.61067     10.35284        -0.933647     -1.169674      0.270477
C      6.59456     15.36773     10.62556        -1.546165      0.323411      0.014395
C     14.38384      5.61067     10.62556         2.158115     -0.820623     -0.083070
C     14.38384     15.36773     10.35284         0.420721      0.741648      0.009214
C     10.40319      3.19606      7.29314        -0.025632      0.630737     -0.299051
C     10.35913      4.25547      6.23373         0.088835     -0.799800      0.759660
C      0.08601      7.29314      7.29314        -0.034644     -0.740453     -0.286018
C      0.13007      6.23373      6.23373        -0.166144      0.866142      0.820310
C      0.08601      3.19606      3.19606        -0.075236      0.464496      0.387076
C      0.13007      4.25547      4.25547         0.026202     -0.891975     -0.619187
C     10.40319      7.29314      3.19606         0.025073     -0.315167      0.248308
C     10.35913      6.23373      4.25547         0.067600      0.689270     -0.522438
C      7.29314     10.40319      3.19606        -0.390414      0.028944      0.558489
C      6.23373     10.35913      4.25547         0.320198      0.013532     -0.451410
C      7.29314      0.08601      7.29314        -0.429837      0.052407     -0.482785
C      6.23373      0.13007      6.23373         0.158933      0.115408      0.572412
C      3.19606      0.08601      3.19606         0.221710      0.015463      0.599254
C      4.25547      0.13007      4.25547        -0.426226      0.142525     -0.335997
C      3.19606     10.40319      7.29314         0.515562     -0.005998     -0.658161
C      4.25547     10.35913      6.23373        -0.388821      0.049627      0.616221
C      3.19606      7.29314     10.40319         0.350196     -0.561914     -0.018306
C      4.25547      6.23373     10.35913        -0.718031      0.386727     -0.143302
C      7.29314      7.29314      0.08601        -0.292393     -0.183305     -0.004420
C      6.23373      6.23373      0.13007         0.059099      0.491144     -0.034854
C      3.19606      3.19606      0.08601         0.456501      0.104612     -0.018369
C      4.25547      4.25547      0.13007        -0.100832     -0.371300     -0.039845
C      7.29314      3.19606     10.40319        -0.426109      0.531404     -0.011551
C      6.23373      4.25547     10.35913         0.578313     -0.692117     -0.103939
O     10.43466      3.58206      8.50569         0.000226      0.135865      0.274541
O     10.54374     17.39634      8.50569         0.025806     -0.151936      0.289174
O     10.54374      3.58206     12.47271         0.078041      0.190868     -0.370454
O     10.43466     17.39634     12.47271        -0.069328     -0.247732     -0.328304
O      8.50569     10.43466      3.58206         0.502476     -0.006991      0.147769
O      8.50569     10.54374     17.39634         0.452165      0.057711     -0.119647
O     12.47271     10.54374      3.58206        -0.379988      0.032971      0.106881
O     12.47271     10.43466     17.39634        -0.523035     -0.045729     -0.112242
O      3.58206      8.50569     10.43466         0.126373      0.557667     -0.051671
O     17.39634      8.50569     10.54374        -0.150740      0.439589      0.026445
O      3.58206     12.47271     10.54374         0.094181     -0.356494      0.045810
O     17.39634     12.47271     10.43466        -0.194807     -0.604421     -0.021699
O      3.58206     10.43466      8.50569         0.234372     -0.079023      0.603809
O     17.39634     10.54374      8.50569        -0.186074      0.010706      0.505878
O      3.58206     10.54374     12.47271         0.305370     -0.044606     -0.529329
O     17.39634     10.43466     12.47271        -0.182329     -0.021762     -0.549650
O     10.43466      8.50569      3.58206         0.001793      0.445877      0.234874
O     10.54374      8.50569     17.39634         0.086551      0.648378     -0.329265
O     10.54374     12.47271      3.58206         0.012211     -0.572681      0.271257
O     10.43466     12.47271     17.39634        -0.067078     -0.621871     -0.316508
O      8.50569      3.58206     10.43466         0.563055      0.172060     -0.039393
O      8.50569     17.39634     10.54374         0.443876     -0.191290      0.036052
O     12.47271      3.58206     10.54374        -0.505785      0.182815      0.005820
O     12.47271     17.39634     10.43466        -0.544785     -0.166067     -0.024554
O     11.90042     11.90042     19.56718        -0.302317     -0.292321      0.242634
O     19.56718     19.56718     19.56718         0.300473      0.298357      0.233643
O     19.56718     11.90042     11.90042         0.306786     -0.313007     -0.276009
O     11.90042     19.56718     11.90042        -0.297740      0.312545     -0.269160
O      9.45224      1.03696      9.45224        -0.042163      0.042081     -0.115884
O      1.03696      9.45224      9.45224         0.040244     -0.035341     -0.115608
O      1.03696      1.03696      1.03696         0.064586      0.057969      0.071020
O      9.45224      9.45224      1.03696        -0.059556     -0.050623      0.072371
Zr     10.48920      2.52580     10.48920        -0.119667     -0.097543      0.061685
Zr     10.48920     18.45260     10.48920         0.087162      0.083119      0.023470
Zr     10.48920     10.48920      2.52580         0.000176      0.008158     -0.194447
Zr     10.48920     10.48920     18.45260         0.034152      0.009193      0.262013
Zr      2.52580     10.48920     10.48920        -0.115641     -0.008918     -0.007603
Zr     18.45260     10.48920     10.48920         0.168790      0.046236      0.055378
Pd     13.34933      8.54610      8.00168         0.352357     -0.198115     -0.083168
Pd      8.74351     14.00385     11.93392         0.147752      0.199313      0.162142
Pd     12.17268     11.08913     10.64259        -0.251954      0.588693      0.265234
Pd     14.46187     10.75524     11.83826         0.572039      0.284472      0.008760
Pd     11.08584      9.05467      6.64131         0.445108      0.366885     -0.192480
Pd      7.50853      7.46007      9.25647        -0.615954      0.394438     -1.115065
Ir      9.87984     11.53213     11.97476        -0.209164      0.352385     -0.191890
Ir     13.27740      8.62870     10.69111         0.335100      0.211423     -0.170910
Ir     12.14282     11.06684      7.97487        -0.097667     -0.060587     -0.055561
Ir      8.78824     13.82429      9.23564         0.244135      0.158969      0.135856
Ir     11.04087      9.14415     12.02244        -0.266706      0.165524      0.201637
Ir      8.69894      9.52309      8.01217         0.302851     -0.577323      0.178609
Ir     13.28501     12.99928      9.20898         0.317250     -0.029191     -0.145652
Ir     11.09701     13.37979      7.96134         0.327159      0.392434     -0.047299
Ir     14.36802     10.63234      9.33933        -0.161456     -0.122112     -0.473938
Ir      9.89863      7.02768     10.76156        -0.258205      0.196017     -0.230560
Ir      7.65069     11.86485      7.98009        -0.366989      0.679440     -0.038529
Ir      9.75780      7.27829      8.19573         0.293484      0.659161     -0.158475
Ir     11.16538     13.47296     13.19205         0.125290      0.658048      0.240079
Ir     12.13637      6.79370     12.07221        -0.108071      0.636656      0.244963
Ir      9.87036     11.45321      9.29129        -0.032562      0.048732      0.429413
Ir     13.27856      8.67694     13.36678         0.171925     -0.155266      0.250838
Ir     11.07110      9.09471      9.40754        -0.489868     -0.379790     -0.600839
Ir     11.03300     13.54140     10.56315        -0.203598      0.157017     -0.175971
Ir     13.24997     13.13457     11.95225         0.320196      0.099807     -0.320355
Ir     12.13634     11.19025     13.32983         0.524962     -0.074876     -0.348590
Ir      9.87925     11.35785      6.67754         0.064242      0.209039     -0.106795
Ir     12.04414      6.66582      9.43666        -0.511257      0.301624     -0.052500
Ir      7.58610      7.55171     12.10859        -0.632841      0.063424     -0.357734
Ir      7.61916     11.93122     10.61754         0.206751      0.652110      0.215363
Ir     11.05465      9.33817     14.63160         0.297726     -0.556349     -0.068494
Ir      7.64360     11.99610     13.27935        -0.271350      0.012959     -0.146689
Ir      6.50715      9.92898      9.42476        -0.255863      0.430266     -0.387008
Ir      8.71707      9.59160     13.35178        -0.148972      0.558416      0.023616
Ir      6.52623      9.87797     11.84396        -0.879369     -0.023415      0.168203
Ir      9.63721      7.30468     13.33041        -0.054824     -0.776368      0.570901
Ir      9.87659     11.50783     14.60517        -0.448373      0.633038     -0.026725
Ir      8.72885      9.50265     10.69659         0.781687     -0.458599     -0.195689
