152
# total energy = -1110.30662355 eVH     10.35389      5.87395      7.64558        -0.352972     -0.226643      1.055784
H     10.62451     15.10445      7.64558         0.407610      0.093172      0.953467
H     10.62451      5.87395     13.33282        -0.273447     -0.829047     -1.489967
H     10.35389     15.10445     13.33282        -0.649524      0.350947     -0.350299
H      7.64558     10.35389      5.87395         0.530471     -0.557147     -0.064544
H      7.64558     10.62451     15.10445         0.338494     -0.249424      0.036309
H     13.33282     10.62451      5.87395        -0.479565      0.539765      0.001573
H     13.33282     10.35389     15.10445        -0.523892      0.398195      0.147178
H      5.87395      7.64558     10.35389         0.122017      0.450724      0.032743
H     15.10445      7.64558     10.62451         0.415453      0.651822      0.239166
H      5.87395     13.33282     10.62451        -0.244355     -0.416142      0.375321
H     15.10445     13.33282     10.35389         0.031676     -0.331957     -0.398314
H      5.87395     10.35389      7.64558        -0.070365     -0.323776      1.482958
H     15.10445     10.62451      7.64558         0.175959      0.297883      1.150027
H      5.87395     10.62451     13.33282        -0.112666     -0.322336     -1.086645
H     15.10445     10.35389     13.33282         0.436859      0.764700     -1.446758
H     10.35389      7.64558      5.87395        -0.518675      0.510619     -0.234791
H     10.62451      7.64558     15.10445        -0.112435      0.616318      0.229084
H     10.62451     13.33282      5.87395         0.916964     -1.414571     -0.335293
H     10.35389     13.33282     15.10445         0.309429     -0.536715     -0.051604
H      7.64558      5.87395     10.35389         0.774166      0.160837     -0.137194
H      7.64558     15.10445     10.62451         1.981301      0.852096      0.185083
H     13.33282      5.87395     10.62451        -2.638028     -1.016150     -0.331515
H     13.33282     15.10445     10.35389        -0.848726     -0.035381     -0.251048
H     12.45634     12.45634     19.01126         0.271632      0.257166     -0.228633
H     19.01126     19.01126     19.01126        -0.267088     -0.253636     -0.237955
H     19.01126     12.45634     12.45634        -0.282261      0.282104      0.187151
H     12.45634     19.01126     12.45634         0.256934     -0.252138      0.235680
C     10.35284      5.61067      6.59456         0.130925     -0.479893     -1.355728
C     10.62556     15.36773      6.59456         0.151868      0.746929     -0.879979
C     10.62556      5.61067     14.38384         0.136511     -0.313088      1.900363
C     10.35284     15.36773     14.38384         0.141694      0.379307      1.812092
C      6.59456     10.35284      5.61067        -1.120090     -0.123516     -0.862107
C      6.59456     10.62556     15.36773        -0.653308     -0.117930      0.696837
C     14.38384     10.62556      5.61067         0.840094     -0.125200     -0.926319
C     14.38384     10.35284     15.36773         1.175956      0.158636      1.053080
C      5.61067      6.59456     10.35284        -0.740195     -0.746284     -0.151346
C     15.36773      6.59456     10.62556         1.938251     -0.087823     -0.153446
C      5.61067     14.38384     10.62556        -1.578387      0.028385     -0.079147
C     15.36773     14.38384     10.35284         0.467178      0.051045      0.042598
C      5.61067     10.35284      6.59456        -0.286982      0.229877     -1.443436
C     15.36773     10.62556      6.59456         0.267975     -0.129874     -0.956557
C      5.61067     10.62556     14.38384        -0.310429      0.333339      1.413013
C     15.36773     10.35284     14.38384         0.084922     -0.413463      1.819473
C     10.35284      6.59456      5.61067        -0.231496     -1.031161     -0.769609
C     10.62556      6.59456     15.36773        -0.075467     -0.890815      1.070726
C     10.62556     14.38384      5.61067        -0.464425      2.069118     -0.778469
C     10.35284     14.38384     15.36773        -0.304157      1.527453      0.434645
C      6.59456      5.61067     10.35284        -0.982627     -0.403023      0.074236
C      6.59456     15.36773     10.62556        -1.403234      0.310648     -0.342607
C     14.38384      5.61067     10.62556         1.307513     -0.898811      0.102883
C     14.38384     15.36773     10.35284         0.362195      0.297290      0.050244
C     10.40319      3.19606      7.29314         0.009118      0.306834     -0.097965
C     10.35913      4.25547      6.23373         0.134821     -0.474784      0.070176
C      0.08601      7.29314      7.29314        -0.054689     -0.317471     -0.433251
C      0.13007      6.23373      6.23373        -0.139479      0.765326      0.045586
C      0.08601      3.19606      3.19606        -0.113765      1.593904      0.171668
C      0.13007      4.25547      4.25547        -0.100911     -0.403385     -1.298220
C     10.40319      7.29314      3.19606         0.022697     -0.432376      0.124592
C     10.35913      6.23373      4.25547         0.257712      0.091289     -0.452989
C      7.29314     10.40319      3.19606        -1.683040      0.009320      0.310919
C      6.23373     10.35913      4.25547         0.629858      0.072641     -0.603912
C      7.29314      0.08601      7.29314        -0.391556     -0.003152     -0.281663
C      6.23373      0.13007      6.23373         0.540714     -0.044379      0.296877
C      3.19606      0.08601      3.19606         0.663267     -0.008888      0.214729
C      4.25547      0.13007      4.25547        -0.378141     -0.040246     -0.452774
C      3.19606     10.40319      7.29314         0.392166      0.025862     -0.340411
C      4.25547     10.35913      6.23373        -0.719184      0.059093      0.395827
C      3.19606      7.29314     10.40319         0.322638     -0.242543     -0.006185
C      4.25547      6.23373     10.35913         0.053274      0.646598      0.098038
C      7.29314      7.29314      0.08601        -0.711825     -0.551175     -0.014937
C      6.23373      6.23373      0.13007         0.638762      1.193088     -0.076744
C      3.19606      3.19606      0.08601         0.800814      0.464457      0.012828
C      4.25547      4.25547      0.13007        -0.344009     -1.643465     -0.099781
C      7.29314      3.19606     10.40319        -0.339051      0.278640     -0.002099
C      6.23373      4.25547     10.35913         0.547946     -0.064353      0.233448
O     10.43466      3.58206      8.50569        -0.046227      0.183527      0.261232
O     10.54374     17.39634      8.50569         0.041224     -0.228797      0.482504
O     10.54374      3.58206     12.47271         0.089561     -0.043641     -0.054388
O     10.43466     17.39634     12.47271        -0.026621     -0.129968     -0.269853
O      8.50569     10.43466      3.58206         0.973533      0.183686      0.395440
O      8.50569     10.54374     17.39634         0.559885      0.081826     -0.223133
O     12.47271     10.54374      3.58206        -0.456099     -0.034589      0.192734
O     12.47271     10.43466     17.39634        -0.535389     -0.071079     -0.201055
O      3.58206      8.50569     10.43466         0.173637      0.458404     -0.033916
O     17.39634      8.50569     10.54374        -0.216981      0.701720      0.040848
O      3.58206     12.47271     10.54374         0.155176     -0.646731      0.023589
O     17.39634     12.47271     10.43466        -0.183303     -0.488333     -0.015672
O      3.58206     10.43466      8.50569         0.217984     -0.062696      0.409280
O     17.39634     10.54374      8.50569        -0.165791      0.034865      0.411145
O      3.58206     10.54374     12.47271         0.139094      0.016795     -0.324180
O     17.39634     10.43466     12.47271         0.068848     -0.057499     -0.088092
O     10.43466      8.50569      3.58206        -0.000046      0.294629      0.179273
O     10.54374      8.50569     17.39634         0.071292      0.443043     -0.188705
O     10.54374     12.47271      3.58206        -0.224186     -0.946381      0.348598
O     10.43466     12.47271     17.39634        -0.085052     -0.442072     -0.243124
O      8.50569      3.58206     10.43466         0.504882      0.195771     -0.014845
O      8.50569     17.39634     10.54374         0.644530     -0.190385      0.026774
O     12.47271      3.58206     10.54374        -0.728356      0.278340      0.038654
O     12.47271     17.39634     10.43466        -0.454616     -0.193712     -0.043109
O     11.90042     11.90042     19.56718        -0.342623     -0.305796      0.259501
O     19.56718     19.56718     19.56718         0.328045      0.308653      0.281377
O     19.56718     11.90042     11.90042         0.280665     -0.282220     -0.139884
O     11.90042     19.56718     11.90042        -0.311180      0.290712     -0.233808
O      9.45224      1.03696      9.45224        -0.053037      0.071214     -0.047939
O      1.03696      9.45224      9.45224         0.034950     -0.071503     -0.072853
O      1.03696      1.03696      1.03696         0.051330      0.131872      0.112583
O      9.45224      9.45224      1.03696        -0.121701     -0.082752      0.115050
Zr     10.48920      2.52580     10.48920         0.123748     -0.160413     -0.160145
Zr     10.48920     18.45260     10.48920        -0.078930      0.175497     -0.037961
Zr     10.48920     10.48920      2.52580         0.336157     -0.301389     -0.205505
Zr     10.48920     10.48920     18.45260        -0.003694     -0.078348      0.209325
Zr      2.52580     10.48920     10.48920        -0.057870      0.147526     -0.049160
Zr     18.45260     10.48920     10.48920         0.121764     -0.115422     -0.253130
Ir     12.05337     12.47893     10.45709        -0.003330      0.004185      0.023223
Ir     11.04899      7.40449     10.36668         0.055970      0.004214     -0.034883
Ir      8.69683      7.43521     11.62037         0.056027     -0.018552     -0.013544
Ir      7.46041     11.70358      7.64474         0.020607     -0.014644      0.005145
Ir     11.57526     12.09386      7.12876         0.001040     -0.012865     -0.019156
Ir     13.64738      8.93128      7.57136         0.042013      0.028454     -0.003547
Ir     12.51753     13.93403      8.42070         0.003887      0.024648      0.005437
Ir      9.67719     11.28259      5.58231         0.014881     -0.002960      0.012216
Ir      9.08298     13.49227      7.07343        -0.001342     -0.000425      0.002645
Ir      9.25554      9.67088      7.55816         0.013735     -0.010362     -0.004270
Ir     13.16977      7.04657     11.94268         0.047561     -0.018006      0.002714
Ir     13.42538      6.98695      9.12063         0.060121      0.026247     -0.007707
Ir     10.92539      7.61066     12.89505         0.039650     -0.003732     -0.001091
Ir     13.59987     11.52087      8.75145         0.018014      0.013037     -0.004229
Ir     11.46024      9.67263      6.24337         0.014586      0.010649     -0.003952
Ir      7.07492      9.26872      8.97207         0.031043     -0.033408     -0.009711
Ir     14.04479     11.37458     11.63979         0.014776      0.019728      0.007653
Ir     11.59874      9.88846      8.92240         0.022449     -0.016817     -0.011702
Ir      9.36422      9.56163     10.27085         0.013775     -0.019661     -0.017122
Ir     13.79298      9.34034     10.18351         0.021575      0.022329      0.003282
Ir     13.76021      9.14186     12.92640         0.008643      0.005904     -0.010012
Ir     11.62894      9.74515     11.58809         0.019985      0.015180     -0.013603
Ir      9.88785     11.79102      8.98912        -0.007108     -0.006463     -0.000467
Ir      8.90901      7.46410      8.89119         0.061065     -0.009860     -0.013714
Ir     11.35323      7.62168      7.84361         0.079505     -0.007118     -0.008409
Ir      9.18821      9.54377     13.03062         0.022160     -0.017305     -0.002390
Ir      7.54426     13.97367      8.98584        -0.003581     -0.019745      0.002184
Ir     10.94388     14.13583     11.94821        -0.008546     -0.025373     -0.006783
Ir     10.13978     14.20482      9.52571        -0.004748     -0.012435      0.004698
Ir      9.79404     11.73038     11.72515         0.003103      0.007379      0.001595
Ir      7.56923     11.66190     10.21194         0.007714     -0.026012     -0.000644
Ir      8.40605     13.81619     11.59392        -0.008343     -0.023194      0.001519
Ir      7.52018     11.68627     12.84326         0.003830     -0.031285     -0.000149
Ir      9.75803     11.66917     14.34091         0.006148     -0.011191     -0.000688
Ir     13.52869     13.83805     12.18663        -0.015286      0.008756     -0.006355
Ir     11.99902     12.04467     13.08161        -0.003172      0.014260     -0.012243
Ir     11.53595      9.82543     14.22039         0.010599     -0.005025      0.004311
Ir      7.07378      9.49609     11.52674         0.029002     -0.036155     -0.009862
