9
# total energy = -73.90553440 eVC      2.68348      0.75026      7.50000        -0.000000     -0.177031     -0.000000
C      2.68348      4.61670      7.50000        -0.000000      0.177031     -0.000000
C      4.61670      2.68348      7.50000         0.177031     -0.000000     -0.000000
C      0.75026      2.68348      7.50000        -0.177031     -0.000000     -0.000000
C      3.98458      3.98458      7.50000        -0.105915     -0.105915     -0.000000
C      1.38238      1.38238      7.50000         0.105915      0.105915      0.000000
C      1.38238      3.98458      7.50000         0.105915     -0.105915     -0.000000
C      3.98458      1.38238      7.50000        -0.105915      0.105915      0.000000
Ir      0.00000      0.00000      7.50000        -0.000000     -0.000000     -0.000000
