35
# total energy = -301.58196925 eVC      6.68700     10.29543      7.65575         0.008002      0.023784     -0.004187
C      8.07436      9.94539      7.58130        -0.008299      0.000235     -0.000338
C      9.41801      5.71131      7.64968        -0.026392     -0.005639     -0.005749
C      1.46302      5.34646      7.67306         0.009745      0.007814      0.007449
C      4.19485      0.76193      7.63723         0.003609     -0.003874     -0.004122
C      2.80708      1.11148      7.56704         0.014689      0.002106     -0.005689
C      0.70507      4.16515      7.64841        -0.035468     -0.027087     -0.001464
C      1.08915      2.78676      7.57366         0.034933      0.009274      0.001875
C      5.35759      1.54939      7.64432        -0.006352      0.018099     -0.005424
C      5.52409      9.50852      7.67746         0.023803     -0.002818      0.007460
C     10.17662      6.89250      7.64455         0.020493      0.023461     -0.004473
C      9.79318      8.27118      7.57550        -0.022764     -0.001795     -0.004134
C      0.77642      6.57574      7.64980         0.022042      0.023266     -0.000665
C      1.26342      7.92216      7.57886        -0.026098      0.023057      0.000719
C     10.10469      4.48220      7.64282        -0.004542     -0.037652     -0.003135
C      9.61898      3.13562      7.56507         0.031224     -0.016607     -0.004925
C      4.27888     10.16461      7.65498        -0.055923     -0.019866     -0.002671
C      2.94460      9.64467      7.58113        -0.023274      0.028930      0.001824
C      6.60354      0.89340      7.63726         0.024831      0.003178     -0.003153
C      7.93755      1.41253      7.56116         0.022658     -0.045195     -0.002539
N      8.80857      0.32152      7.47453        -0.015965      0.046364      0.007734
N      0.15264      8.76664      7.48585         0.033239     -0.029228      0.009943
N      8.54286      8.70724      7.60132        -0.015942     -0.040519      0.009196
N      2.33965      2.34989      7.59461         0.003277      0.043055      0.009105
N      2.07307     10.73443      7.48861         0.020445     -0.042266      0.009243
N     10.73108      2.29195      7.48048        -0.039892      0.015003      0.006249
N      2.57657      8.32223      7.59778        -0.002337      0.003018      0.014238
N      8.30602      2.73465      7.57478         0.002455      0.006238      0.008391
O      5.32705      2.87834      7.60985         0.017641      0.010477     -0.015076
O      5.55524      8.17958      7.68995        -0.020352     -0.021826      0.017363
O      8.08855      5.70924      7.61359         0.005660     -0.011666     -0.015559
O      2.79228      5.34793      7.68929         0.023989      0.025569      0.014381
Zr      6.54021      4.45786      7.55926        -0.030948      0.011603     -0.026303
Zr      4.34243      6.59949      7.70621         0.015088     -0.024394      0.017113
Zr      0.02685     10.81034      6.85736        -0.003274      0.005901     -0.032676
