152
# total energy = -1022.91060160 eVH     10.35389      5.87395      7.64558         0.475892      0.031976      0.900174
H     10.62451     15.10445      7.64558        -0.052227      0.011145      0.763733
H     10.62451      5.87395     13.33282         0.143928      0.118225     -0.607634
H     10.35389     15.10445     13.33282        -0.278823     -0.072795     -0.581659
H      7.64558     10.35389      5.87395         0.336211     -0.034514      0.191766
H      7.64558     10.62451     15.10445         0.618152     -0.190723     -0.133436
H     13.33282     10.62451      5.87395        -0.832907     -0.290922      0.174411
H     13.33282     10.35389     15.10445        -0.483702     -0.108735     -0.048769
H      5.87395      7.64558     10.35389         0.129391      1.111413     -0.153712
H     15.10445      7.64558     10.62451        -0.167420      0.407093     -0.085075
H      5.87395     13.33282     10.62451         0.144758     -0.412037     -0.070636
H     15.10445     13.33282     10.35389        -0.077351     -0.970808     -0.179706
H      5.87395     10.35389      7.64558         0.134297      0.046092      0.486962
H     15.10445     10.62451      7.64558         0.117575     -0.195719      0.839703
H      5.87395     10.62451     13.33282         0.260561     -0.035189     -0.394314
H     15.10445     10.35389     13.33282        -0.132421      0.007388     -0.650377
H     10.35389      7.64558      5.87395         0.063711      0.853256      0.121837
H     10.62451      7.64558     15.10445         0.034554      0.520761     -0.148148
H     10.62451     13.33282      5.87395         0.054172     -0.606867      0.200333
H     10.35389     13.33282     15.10445        -0.264931     -0.878969     -0.101682
H      7.64558      5.87395     10.35389         0.523840      0.044513     -0.130567
H      7.64558     15.10445     10.62451         0.893489     -0.230934      0.262134
H     13.33282      5.87395     10.62451        -0.436730      0.184864     -0.058999
H     13.33282     15.10445     10.35389        -0.955331     -0.106325      0.203369
H     12.45634     12.45634     19.01126         0.266527      0.258798     -0.224201
H     19.01126     19.01126     19.01126        -0.248028     -0.234035     -0.262763
H     19.01126     12.45634     12.45634        -0.241476      0.270660      0.238154
H     12.45634     19.01126     12.45634         0.212483     -0.282460      0.252152
C     10.35284      5.61067      6.59456        -0.127277     -0.435646     -0.387633
C     10.62556     15.36773      6.59456         0.025972      0.346603     -1.141419
C     10.62556      5.61067     14.38384        -0.025314     -0.212706      0.723839
C     10.35284     15.36773     14.38384         0.182157      0.786314      0.153815
C      6.59456     10.35284      5.61067        -0.427221     -0.038500     -0.185178
C      6.59456     10.62556     15.36773        -0.801348      0.151334      0.353759
C     14.38384     10.62556      5.61067         0.597493      0.272620     -0.381106
C     14.38384     10.35284     15.36773         0.758361     -0.122676      0.442618
C      5.61067      6.59456     10.35284        -0.419907     -0.741173      0.284241
C     15.36773      6.59456     10.62556         0.190448     -0.474628      0.044583
C      5.61067     14.38384     10.62556        -0.240642      0.392396     -0.026677
C     15.36773     14.38384     10.35284         0.414914      0.101762      0.136637
C      5.61067     10.35284      6.59456        -0.300705     -0.013876     -0.878326
C     15.36773     10.62556      6.59456         0.560456     -0.153191     -1.228159
C      5.61067     10.62556     14.38384        -0.453179      0.005491      0.850146
C     15.36773     10.35284     14.38384         0.535050     -0.186867      1.248683
C     10.35284      6.59456      5.61067        -0.042954     -0.911709     -0.674758
C     10.62556      6.59456     15.36773         0.036212     -0.608590      0.288808
C     10.62556     14.38384      5.61067         0.051598      1.241009     -0.664735
C     10.35284     14.38384     15.36773         0.086750      0.570681      0.682416
C      6.59456      5.61067     10.35284        -0.211590     -0.877445      0.122137
C      6.59456     15.36773     10.62556        -1.700378      0.489302      0.062075
C     14.38384      5.61067     10.62556         0.586033     -0.221211     -0.005067
C     14.38384     15.36773     10.35284         0.057279      0.573225     -0.254948
C     10.40319      3.19606      7.29314         0.017614      0.927915     -0.260683
C     10.35913      4.25547      6.23373        -0.052746     -0.369324      0.620568
C      0.08601      7.29314      7.29314        -0.009300     -0.241671     -0.480612
C      0.13007      6.23373      6.23373         0.002931      0.104747      0.203432
C      0.08601      3.19606      3.19606        -0.016166      0.662202      0.179876
C      0.13007      4.25547      4.25547        -0.088717     -0.197790     -0.177353
C     10.40319      7.29314      3.19606        -0.000209     -0.709038      0.529205
C     10.35913      6.23373      4.25547        -0.006532      0.527737     -0.406351
C      7.29314     10.40319      3.19606        -0.349669      0.023788      0.843331
C      6.23373     10.35913      4.25547         0.221023      0.019686     -0.140403
C      7.29314      0.08601      7.29314        -0.315842     -0.046377     -0.272943
C      6.23373      0.13007      6.23373         0.271840     -0.060301      0.303383
C      3.19606      0.08601      3.19606         0.461018     -0.052291      1.270929
C      4.25547      0.13007      4.25547        -0.112221     -0.033269     -0.461358
C      3.19606     10.40319      7.29314         0.724284      0.014703     -0.261512
C      4.25547     10.35913      6.23373        -0.143445      0.040036      0.116182
C      3.19606      7.29314     10.40319         0.603405     -1.262349      0.022718
C      4.25547      6.23373     10.35913        -0.692024      0.859583      0.057689
C      7.29314      7.29314      0.08601        -0.673723     -0.172961     -0.021462
C      6.23373      6.23373      0.13007         0.177877      0.257410     -0.007612
C      3.19606      3.19606      0.08601         0.244587      0.258226     -0.018673
C      4.25547      4.25547      0.13007        -0.053566     -0.037192      0.008816
C      7.29314      3.19606     10.40319        -0.374236      0.799242      0.013678
C      6.23373      4.25547     10.35913         0.895277     -0.150541      0.008943
O     10.43466      3.58206      8.50569        -0.050104      0.027797      0.319117
O     10.54374     17.39634      8.50569        -0.027372     -0.181073      0.606900
O     10.54374      3.58206     12.47271         0.055102      0.057989     -0.317754
O     10.43466     17.39634     12.47271        -0.024801     -0.120748     -0.580376
O      8.50569     10.43466      3.58206         0.386509     -0.022568     -0.008876
O      8.50569     10.54374     17.39634         0.475433      0.052991     -0.142476
O     12.47271     10.54374      3.58206        -0.302710      0.045559     -0.069008
O     12.47271     10.43466     17.39634        -0.864100      0.021115     -0.228802
O      3.58206      8.50569     10.43466         0.046287      0.928309      0.033863
O     17.39634      8.50569     10.54374        -0.034511      0.334022      0.078607
O      3.58206     12.47271     10.54374         0.061068     -0.424596      0.063935
O     17.39634     12.47271     10.43466        -0.171717     -0.780474      0.022805
O      3.58206     10.43466      8.50569        -0.060677     -0.067971      0.213909
O     17.39634     10.54374      8.50569        -0.135232      0.042178      0.460582
O      3.58206     10.54374     12.47271        -0.012122     -0.048159     -0.882335
O     17.39634     10.43466     12.47271        -0.197189      0.039523     -0.754240
O     10.43466      8.50569      3.58206         0.047590      0.695361      0.193826
O     10.54374      8.50569     17.39634         0.055693      0.435817     -0.076874
O     10.54374     12.47271      3.58206        -0.010647     -0.741342      0.229356
O     10.43466     12.47271     17.39634         0.052263     -0.870849     -0.278311
O      8.50569      3.58206     10.43466         0.492486      0.074779     -0.037793
O      8.50569     17.39634     10.54374         0.669070     -0.258290     -0.064813
O     12.47271      3.58206     10.54374        -0.484806      0.161952      0.039548
O     12.47271     17.39634     10.43466        -0.523550     -0.035960     -0.028088
O     11.90042     11.90042     19.56718        -0.303353     -0.311768      0.261407
O     19.56718     19.56718     19.56718         0.287681      0.270318      0.320754
O     19.56718     11.90042     11.90042         0.280042     -0.329830     -0.242645
O     11.90042     19.56718     11.90042        -0.232834      0.290780     -0.241368
O      9.45224      1.03696      9.45224        -0.074137      0.049015     -0.066783
O      1.03696      9.45224      9.45224         0.051214     -0.149567     -0.061537
O      1.03696      1.03696      1.03696         0.037785      0.037366      0.190753
O      9.45224      9.45224      1.03696        -0.040194     -0.093121      0.122855
Zr     10.48920      2.52580     10.48920        -0.008634     -0.076716     -0.025404
Zr     10.48920     18.45260     10.48920         0.072506      0.313973     -0.063575
Zr     10.48920     10.48920      2.52580        -0.091725      0.006837     -0.385039
Zr     10.48920     10.48920     18.45260        -0.147246     -0.156339      0.340347
Zr      2.52580     10.48920     10.48920        -0.358834      0.307983     -0.446683
Zr     18.45260     10.48920     10.48920         0.235857      0.039557     -0.265886
Pd      9.03133     10.26113     13.35030        -0.027472     -0.021572      0.006790
Pd     10.57596      9.71486     10.95120         0.012971     -0.003834     -0.067828
Pd     13.77557      8.56350     12.67823        -0.014672      0.015872     -0.017158
Pd     10.99958     11.06535     15.04029        -0.004318     -0.024377     -0.008546
Pd     12.89597     11.22026     13.06942         0.028948      0.012566      0.018555
Pd     14.97857     10.94715     11.33342         0.000023      0.012639     -0.013803
Pd      6.66647      7.45684     12.33855        -0.011203      0.027126      0.004028
Pd      9.22114      7.28413     10.11890         0.010522      0.007976     -0.038804
Pd      9.28656      7.62101     12.79331         0.000269     -0.021244     -0.022273
Pd     11.70801      7.30309     11.46070        -0.001883     -0.003663     -0.015775
Pd     11.40195      7.99543      8.84607         0.030163     -0.007808     -0.017710
Pd      7.26363     11.84511     11.95420         0.001345     -0.000272     -0.016530
Pd      8.95349     14.69436      9.36172         0.039120      0.016679      0.021277
Pd      8.40676     12.66307     14.32719        -0.004681     -0.010661      0.001791
Pd     13.60313     14.10799      8.51529         0.095340      0.028757     -0.058987
Pd     11.05570     13.36468      8.56796         0.104014      0.058058      0.057537
Pd     14.07751     11.53642      8.91614        -0.002261      0.034659     -0.008559
Pd      8.64568     14.10609     12.10550         0.003252     -0.003120      0.005907
Pd     12.23721     13.76045     14.03011        -0.005301      0.003658      0.003460
Pd     11.21050     14.40557     11.19907         0.019871     -0.005519      0.061544
Pd     14.04394     13.57881     12.16312        -0.001885      0.017988      0.001198
Pd     12.31218     12.09527     10.70274         0.003954     -0.019406      0.018774
Pd     12.65835     12.35381      6.69917         0.016445      0.046664     -0.009845
Pd     13.66885      8.93815      7.91063         0.030213      0.008555     -0.016636
Pd      6.87169      8.48216      8.85846         0.003988      0.011021     -0.002391
Pd      5.52673      9.96755     11.22215         0.017261      0.029201     -0.060055
Pd      9.15484      9.74635      8.28420         0.037198     -0.045255     -0.011247
Pd      8.81509      7.24152      7.45535        -0.031505     -0.023208     -0.022720
Pd      9.54611     12.08875     10.43877         0.044705      0.010308      0.017778
Pd     11.53653     10.71820      8.54693         0.023102      0.025382     -0.038549
Pd     11.25720      9.23640      6.42076         0.038017     -0.024355     -0.009580
Pd      9.90379     11.54376      6.35753         0.037266     -0.034432      0.002860
Ir     11.36404      9.14659     13.32996        -0.012353      0.007935     -0.010600
Ir     13.08157      9.47992     10.37422         0.006226     -0.000060     -0.012005
Ir     10.53737     12.33849     12.73647        -0.002480     -0.010496     -0.003271
Ir      7.18875     11.00739      9.48947         0.027123      0.004298     -0.001295
Ir      8.47568     12.49042      8.18706         0.035138      0.002879     -0.002883
Ir      8.06795      9.32156     11.12592         0.001592      0.003364     -0.002936
