152
# total energy = -1022.87681865 eVH     10.35389      5.87395      7.64558         0.472470      0.025628      0.879950
H     10.62451     15.10445      7.64558        -0.047720      0.041020      0.770000
H     10.62451      5.87395     13.33282         0.145648      0.116518     -0.609652
H     10.35389     15.10445     13.33282        -0.247233     -0.082701     -0.556492
H      7.64558     10.35389      5.87395         0.330403     -0.033989      0.189596
H      7.64558     10.62451     15.10445         0.618869     -0.193785     -0.141296
H     13.33282     10.62451      5.87395        -0.836832     -0.316204      0.172680
H     13.33282     10.35389     15.10445        -0.447818     -0.081376     -0.067903
H      5.87395      7.64558     10.35389         0.135220      1.102568     -0.175282
H     15.10445      7.64558     10.62451        -0.170262      0.404901     -0.086295
H      5.87395     13.33282     10.62451         0.143734     -0.409513     -0.072810
H     15.10445     13.33282     10.35389        -0.077376     -0.969804     -0.182473
H      5.87395     10.35389      7.64558         0.129956      0.042678      0.485149
H     15.10445     10.62451      7.64558         0.107982     -0.196849      0.833581
H      5.87395     10.62451     13.33282         0.263771     -0.032202     -0.394193
H     15.10445     10.35389     13.33282        -0.154243      0.015225     -0.620856
H     10.35389      7.64558      5.87395         0.062311      0.889367      0.110869
H     10.62451      7.64558     15.10445         0.026409      0.543538     -0.145639
H     10.62451     13.33282      5.87395         0.049213     -0.595047      0.184211
H     10.35389     13.33282     15.10445        -0.254057     -0.897929     -0.112018
H      7.64558      5.87395     10.35389         0.523720      0.048442     -0.130961
H      7.64558     15.10445     10.62451         0.922292     -0.209590      0.281890
H     13.33282      5.87395     10.62451        -0.439087      0.185485     -0.059670
H     13.33282     15.10445     10.35389        -1.007909     -0.104318      0.253980
H     12.45634     12.45634     19.01126         0.266082      0.257519     -0.225359
H     19.01126     19.01126     19.01126        -0.247174     -0.235185     -0.262335
H     19.01126     12.45634     12.45634        -0.239950      0.271127      0.239254
H     12.45634     19.01126     12.45634         0.211495     -0.282277      0.252815
C     10.35284      5.61067      6.59456        -0.109448     -0.449693     -0.369015
C     10.62556     15.36773      6.59456         0.021333      0.353132     -1.152958
C     10.62556      5.61067     14.38384        -0.031295     -0.216170      0.730298
C     10.35284     15.36773     14.38384         0.168142      0.778086      0.162598
C      6.59456     10.35284      5.61067        -0.408008     -0.040046     -0.177498
C      6.59456     10.62556     15.36773        -0.788958      0.153434      0.349329
C     14.38384     10.62556      5.61067         0.585354      0.291221     -0.374065
C     14.38384     10.35284     15.36773         0.719974     -0.119188      0.429193
C      5.61067      6.59456     10.35284        -0.421649     -0.726894      0.288873
C     15.36773      6.59456     10.62556         0.197510     -0.464051      0.047299
C      5.61067     14.38384     10.62556        -0.253191      0.382020     -0.026526
C     15.36773     14.38384     10.35284         0.407714      0.147469      0.178827
C      5.61067     10.35284      6.59456        -0.308387     -0.017264     -0.890213
C     15.36773     10.62556      6.59456         0.579444     -0.167692     -1.235305
C      5.61067     10.62556     14.38384        -0.451631      0.006723      0.872164
C     15.36773     10.35284     14.38384         0.518501     -0.183516      1.249225
C     10.35284      6.59456      5.61067        -0.037187     -0.939142     -0.661047
C     10.62556      6.59456     15.36773         0.043031     -0.643961      0.288653
C     10.62556     14.38384      5.61067         0.049269      1.228119     -0.687798
C     10.35284     14.38384     15.36773         0.109641      0.613914      0.643425
C      6.59456      5.61067     10.35284        -0.205391     -0.882012      0.128462
C      6.59456     15.36773     10.62556        -1.716393      0.488592      0.044825
C     14.38384      5.61067     10.62556         0.589399     -0.229923     -0.007892
C     14.38384     15.36773     10.35284         0.147447      0.558950     -0.244877
C     10.40319      3.19606      7.29314         0.014867      0.894116     -0.254883
C     10.35913      4.25547      6.23373        -0.056628     -0.371178      0.602482
C      0.08601      7.29314      7.29314        -0.008767     -0.241042     -0.469281
C      0.13007      6.23373      6.23373         0.002656      0.116684      0.206683
C      0.08601      3.19606      3.19606        -0.016607      0.650214      0.185920
C      0.13007      4.25547      4.25547        -0.088661     -0.198805     -0.169565
C     10.40319      7.29314      3.19606        -0.002638     -0.692751      0.524568
C     10.35913      6.23373      4.25547        -0.014252      0.493678     -0.427255
C      7.29314     10.40319      3.19606        -0.338809      0.023484      0.879051
C      6.23373     10.35913      4.25547         0.213089      0.012789     -0.144571
C      7.29314      0.08601      7.29314        -0.309235     -0.045686     -0.280043
C      6.23373      0.13007      6.23373         0.271668     -0.057920      0.297816
C      3.19606      0.08601      3.19606         0.447562     -0.051504      1.288218
C      4.25547      0.13007      4.25547        -0.115151     -0.027228     -0.462651
C      3.19606     10.40319      7.29314         0.698625      0.013899     -0.266472
C      4.25547     10.35913      6.23373        -0.134852      0.030114      0.103030
C      3.19606      7.29314     10.40319         0.607387     -1.270799      0.023309
C      4.25547      6.23373     10.35913        -0.711357      0.846156      0.053163
C      7.29314      7.29314      0.08601        -0.648548     -0.174225     -0.021769
C      6.23373      6.23373      0.13007         0.173185      0.268703     -0.007745
C      3.19606      3.19606      0.08601         0.242090      0.252989     -0.019437
C      4.25547      4.25547      0.13007        -0.056469     -0.037313      0.011630
C      7.29314      3.19606     10.40319        -0.370730      0.811576      0.014898
C      6.23373      4.25547     10.35913         0.882447     -0.160898      0.009193
O     10.43466      3.58206      8.50569        -0.049399      0.036749      0.326026
O     10.54374     17.39634      8.50569        -0.023708     -0.180226      0.600400
O     10.54374      3.58206     12.47271         0.054678      0.060201     -0.323904
O     10.43466     17.39634     12.47271        -0.022909     -0.126382     -0.584335
O      8.50569     10.43466      3.58206         0.374153     -0.025385     -0.018314
O      8.50569     10.54374     17.39634         0.471392      0.052595     -0.142461
O     12.47271     10.54374      3.58206        -0.293643      0.047427     -0.072200
O     12.47271     10.43466     17.39634        -0.850350      0.019259     -0.226818
O      3.58206      8.50569     10.43466         0.044297      0.926718      0.038140
O     17.39634      8.50569     10.54374        -0.041092      0.340940      0.077862
O      3.58206     12.47271     10.54374         0.063429     -0.421588      0.064128
O     17.39634     12.47271     10.43466        -0.170420     -0.786341      0.021917
O      3.58206     10.43466      8.50569        -0.054639     -0.066229      0.226365
O     17.39634     10.54374      8.50569        -0.136226      0.043693      0.463855
O      3.58206     10.54374     12.47271        -0.016469     -0.050340     -0.888350
O     17.39634     10.43466     12.47271        -0.197694      0.046282     -0.773032
O     10.43466      8.50569      3.58206         0.045431      0.678303      0.189503
O     10.54374      8.50569     17.39634         0.053846      0.439618     -0.081143
O     10.54374     12.47271      3.58206        -0.007952     -0.736131      0.225894
O     10.43466     12.47271     17.39634         0.047275     -0.846267     -0.272281
O      8.50569      3.58206     10.43466         0.487104      0.071765     -0.038151
O      8.50569     17.39634     10.54374         0.649717     -0.251192     -0.059992
O     12.47271      3.58206     10.54374        -0.483236      0.163427      0.039468
O     12.47271     17.39634     10.43466        -0.526204     -0.035313     -0.028862
O     11.90042     11.90042     19.56718        -0.303736     -0.312095      0.264647
O     19.56718     19.56718     19.56718         0.286493      0.272607      0.320998
O     19.56718     11.90042     11.90042         0.277284     -0.330437     -0.243830
O     11.90042     19.56718     11.90042        -0.230076      0.290199     -0.241639
O      9.45224      1.03696      9.45224        -0.074889      0.047927     -0.066823
O      1.03696      9.45224      9.45224         0.052898     -0.145538     -0.059687
O      1.03696      1.03696      1.03696         0.040700      0.035366      0.188189
O      9.45224      9.45224      1.03696        -0.041877     -0.091483      0.123283
Zr     10.48920      2.52580     10.48920        -0.005536     -0.075129     -0.026043
Zr     10.48920     18.45260     10.48920         0.059053      0.304746     -0.072818
Zr     10.48920     10.48920      2.52580        -0.093386      0.010978     -0.374908
Zr     10.48920     10.48920     18.45260        -0.134012     -0.150353      0.329834
Zr      2.52580     10.48920     10.48920        -0.357355      0.314287     -0.457812
Zr     18.45260     10.48920     10.48920         0.248173      0.030903     -0.272016
Pd      9.03318     10.24973     13.32789        -0.009647     -0.011752      0.004932
Pd     10.57689      9.71910     10.95476         0.007461     -0.001725     -0.023720
Pd     13.77155      8.53488     12.69226        -0.001469      0.000712     -0.011347
Pd     11.00285     11.06725     15.00809        -0.003873     -0.014305      0.007689
Pd     12.86426     11.17303     13.00369         0.016775      0.004256      0.015135
Pd     15.00060     10.94028     11.34311         0.003762      0.020253     -0.008764
Pd      6.65169      7.44569     12.34332        -0.006742      0.023460      0.000712
Pd      9.23496      7.26869     10.10368         0.007568      0.012942     -0.031717
Pd      9.27082      7.59938     12.78340         0.004213     -0.010675     -0.018312
Pd     11.70426      7.28912     11.46259        -0.000724      0.000509     -0.015983
Pd     11.42605      7.99190      8.86114         0.024167     -0.000902     -0.015284
Pd      7.26052     11.83423     11.95126         0.005446     -0.005122     -0.015407
Pd      8.90440     14.67195      9.33023         0.036852      0.005189      0.018811
Pd      8.41689     12.64817     14.32055        -0.006696     -0.005991      0.004710
Pd     13.54046     14.10973      8.55066         0.079328      0.022201     -0.038130
Pd     10.99893     13.34101      8.52238         0.067959      0.033368      0.032961
Pd     14.10485     11.54120      8.93183        -0.000403      0.017579     -0.014771
Pd      8.62233     14.10237     12.10133         0.009365     -0.003651      0.001246
Pd     12.24125     13.70854     14.03148        -0.001770      0.007995      0.006117
Pd     11.15928     14.42835     11.15476         0.030346     -0.010075      0.046527
Pd     14.04639     13.55600     12.16713        -0.009132      0.018000     -0.000899
Pd     12.30395     12.14382     10.66770         0.007184     -0.021856      0.009601
Pd     12.68872     12.35486      6.70947         0.015725      0.031632     -0.016360
Pd     13.69542      8.94091      7.94416         0.028287      0.001614     -0.005406
Pd      6.87431      8.47293      8.84447         0.007199      0.009778     -0.002243
Pd      5.52560      9.94909     11.24174         0.013888      0.021686     -0.046977
Pd      9.17150      9.74829      8.31553         0.022400     -0.027622     -0.016241
Pd      8.82347      7.25812      7.43800        -0.028660     -0.021512     -0.024472
Pd      9.52737     12.08407     10.41811         0.028158      0.003528      0.010697
Pd     11.56499     10.71044      8.54845         0.015521      0.009470     -0.024653
Pd     11.27546      9.21103      6.43899         0.036178     -0.015370     -0.010375
Pd      9.93347     11.52908      6.37059         0.028529     -0.017411      0.002527
Ir     11.34980      9.11055     13.33719        -0.000938      0.003581     -0.022551
Ir     13.08217      9.49685     10.40390         0.009610      0.003310     -0.017258
Ir     10.52950     12.34755     12.70673        -0.005443     -0.018906      0.000971
Ir      7.16121     10.99078      9.49542         0.035218     -0.016562     -0.000977
Ir      8.43323     12.45626      8.16667         0.068067      0.025703     -0.018708
Ir      8.06497      9.29637     11.11181        -0.000831      0.012700     -0.010179
