152
# total energy = -1110.36782647 eVH     10.35389      5.87395      7.64558        -0.346580     -0.153708      1.041248
H     10.62451     15.10445      7.64558         0.375900      0.087387      0.944265
H     10.62451      5.87395     13.33282        -0.310481     -0.709159     -1.403308
H     10.35389     15.10445     13.33282        -0.633644      0.387992     -0.322895
H      7.64558     10.35389      5.87395         0.543832     -0.538643     -0.084132
H      7.64558     10.62451     15.10445         0.361481     -0.241218      0.040880
H     13.33282     10.62451      5.87395        -0.532861      0.617352     -0.021222
H     13.33282     10.35389     15.10445        -0.530891      0.414370      0.162949
H      5.87395      7.64558     10.35389         0.142773      0.505812      0.034985
H     15.10445      7.64558     10.62451         0.431290      0.881239      0.256063
H      5.87395     13.33282     10.62451        -0.228039     -0.454277      0.363465
H     15.10445     13.33282     10.35389         0.030801     -0.309543     -0.390257
H      5.87395     10.35389      7.64558        -0.073422     -0.357126      1.440808
H     15.10445     10.62451      7.64558         0.205786      0.426790      1.268482
H      5.87395     10.62451     13.33282        -0.157480     -0.342862     -1.139875
H     15.10445     10.35389     13.33282         0.548123      0.899408     -1.519405
H     10.35389      7.64558      5.87395        -0.537708      0.498068     -0.192401
H     10.62451      7.64558     15.10445        -0.137706      0.532818      0.194036
H     10.62451     13.33282      5.87395         0.901233     -1.398312     -0.328710
H     10.35389     13.33282     15.10445         0.278228     -0.549813     -0.077396
H      7.64558      5.87395     10.35389         0.718431      0.173669     -0.143777
H      7.64558     15.10445     10.62451         1.974324      0.807496      0.194935
H     13.33282      5.87395     10.62451        -2.694475     -0.982829     -0.438001
H     13.33282     15.10445     10.35389        -0.872315     -0.043725     -0.253831
H     12.45634     12.45634     19.01126         0.271913      0.257679     -0.227562
H     19.01126     19.01126     19.01126        -0.266704     -0.254820     -0.238290
H     19.01126     12.45634     12.45634        -0.282725      0.280942      0.186845
H     12.45634     19.01126     12.45634         0.256129     -0.251842      0.235797
C     10.35284      5.61067      6.59456         0.094144     -0.502079     -1.248578
C     10.62556     15.36773      6.59456         0.165874      0.766743     -0.843085
C     10.62556      5.61067     14.38384         0.174996     -0.322566      1.814374
C     10.35284     15.36773     14.38384         0.117245      0.395892      1.809483
C      6.59456     10.35284      5.61067        -1.123012     -0.111036     -0.850600
C      6.59456     10.62556     15.36773        -0.681359     -0.105252      0.740525
C     14.38384     10.62556      5.61067         0.878801     -0.115194     -0.999773
C     14.38384     10.35284     15.36773         1.206297      0.165151      1.106370
C      5.61067      6.59456     10.35284        -0.684665     -0.820990     -0.167071
C     15.36773      6.59456     10.62556         1.952455     -0.210266     -0.180201
C      5.61067     14.38384     10.62556        -1.576432     -0.007482     -0.117293
C     15.36773     14.38384     10.35284         0.486425      0.055022      0.026669
C      5.61067     10.35284      6.59456        -0.270798      0.202794     -1.353029
C     15.36773     10.62556      6.59456         0.278718     -0.208868     -0.999665
C      5.61067     10.62556     14.38384        -0.274163      0.392058      1.422492
C     15.36773     10.35284     14.38384         0.066143     -0.434929      1.912877
C     10.35284      6.59456      5.61067        -0.196012     -0.914345     -0.690017
C     10.62556      6.59456     15.36773        -0.101297     -0.798275      1.049078
C     10.62556     14.38384      5.61067        -0.487608      2.040287     -0.783920
C     10.35284     14.38384     15.36773        -0.290962      1.459907      0.473982
C      6.59456      5.61067     10.35284        -0.960005     -0.414102      0.078046
C      6.59456     15.36773     10.62556        -1.331865      0.354071     -0.332604
C     14.38384      5.61067     10.62556         1.298930     -1.175457      0.158971
C     14.38384     15.36773     10.35284         0.413359      0.317104      0.059817
C     10.40319      3.19606      7.29314         0.002955      0.310189     -0.099397
C     10.35913      4.25547      6.23373         0.137767     -0.515712      0.025241
C      0.08601      7.29314      7.29314        -0.053823     -0.306200     -0.429841
C      0.13007      6.23373      6.23373        -0.125723      0.719219      0.039613
C      0.08601      3.19606      3.19606        -0.109337      1.624878      0.173072
C      0.13007      4.25547      4.25547        -0.086569     -0.407235     -1.244697
C     10.40319      7.29314      3.19606         0.016912     -0.426247      0.129388
C     10.35913      6.23373      4.25547         0.260473      0.079374     -0.492884
C      7.29314     10.40319      3.19606        -1.664609      0.005576      0.326537
C      6.23373     10.35913      4.25547         0.653897      0.077581     -0.611522
C      7.29314      0.08601      7.29314        -0.399324     -0.010724     -0.298943
C      6.23373      0.13007      6.23373         0.642183     -0.053990      0.271094
C      3.19606      0.08601      3.19606         0.660701     -0.016075      0.187957
C      4.25547      0.13007      4.25547        -0.373127     -0.066225     -0.501304
C      3.19606     10.40319      7.29314         0.378255      0.018251     -0.318644
C      4.25547     10.35913      6.23373        -0.727099      0.060925      0.372004
C      3.19606      7.29314     10.40319         0.302469     -0.216513     -0.006199
C      4.25547      6.23373     10.35913         0.053185      0.647397      0.093282
C      7.29314      7.29314      0.08601        -0.718465     -0.597564     -0.017163
C      6.23373      6.23373      0.13007         0.824550      1.140752     -0.077860
C      3.19606      3.19606      0.08601         0.809235      0.491232      0.011876
C      4.25547      4.25547      0.13007        -0.325376     -1.720331     -0.121841
C      7.29314      3.19606     10.40319        -0.332180      0.277769     -0.003496
C      6.23373      4.25547     10.35913         0.517826     -0.033548      0.229653
O     10.43466      3.58206      8.50569        -0.047562      0.181148      0.258075
O     10.54374     17.39634      8.50569         0.041526     -0.231865      0.485036
O     10.54374      3.58206     12.47271         0.085353     -0.058868     -0.041628
O     10.43466     17.39634     12.47271        -0.022964     -0.140158     -0.279738
O      8.50569     10.43466      3.58206         0.983728      0.182411      0.388741
O      8.50569     10.54374     17.39634         0.567052      0.083641     -0.227140
O     12.47271     10.54374      3.58206        -0.429168     -0.038381      0.188813
O     12.47271     10.43466     17.39634        -0.523552     -0.070800     -0.199461
O      3.58206      8.50569     10.43466         0.179675      0.437766     -0.031037
O     17.39634      8.50569     10.54374        -0.228552      0.714011      0.042400
O      3.58206     12.47271     10.54374         0.159414     -0.667446      0.024230
O     17.39634     12.47271     10.43466        -0.185208     -0.483238     -0.013139
O      3.58206     10.43466      8.50569         0.221202     -0.059174      0.400276
O     17.39634     10.54374      8.50569        -0.169686      0.036695      0.409808
O      3.58206     10.54374     12.47271         0.143957      0.021032     -0.307583
O     17.39634     10.43466     12.47271         0.068080     -0.050280     -0.088149
O     10.43466      8.50569      3.58206        -0.001129      0.277194      0.179166
O     10.54374      8.50569     17.39634         0.071162      0.439291     -0.182482
O     10.54374     12.47271      3.58206        -0.222600     -0.966374      0.346896
O     10.43466     12.47271     17.39634        -0.084601     -0.448736     -0.244730
O      8.50569      3.58206     10.43466         0.497809      0.195301     -0.013217
O      8.50569     17.39634     10.54374         0.658893     -0.194746      0.022498
O     12.47271      3.58206     10.54374        -0.736503      0.277827      0.036479
O     12.47271     17.39634     10.43466        -0.442387     -0.200295     -0.044511
O     11.90042     11.90042     19.56718        -0.345227     -0.307577      0.258706
O     19.56718     19.56718     19.56718         0.325845      0.310767      0.281620
O     19.56718     11.90042     11.90042         0.278238     -0.278141     -0.141274
O     11.90042     19.56718     11.90042        -0.306960      0.287673     -0.234144
O      9.45224      1.03696      9.45224        -0.057293      0.070932     -0.048442
O      1.03696      9.45224      9.45224         0.035430     -0.072981     -0.073161
O      1.03696      1.03696      1.03696         0.057311      0.138809      0.104324
O      9.45224      9.45224      1.03696        -0.131689     -0.089419      0.104073
Zr     10.48920      2.52580     10.48920         0.145653     -0.164546     -0.161740
Zr     10.48920     18.45260     10.48920        -0.093095      0.179507     -0.042138
Zr     10.48920     10.48920      2.52580         0.327736     -0.309953     -0.197906
Zr     10.48920     10.48920     18.45260         0.003190     -0.084338      0.208590
Zr      2.52580     10.48920     10.48920        -0.064796      0.164392     -0.051073
Zr     18.45260     10.48920     10.48920         0.136690     -0.123030     -0.247668
Ir     12.05780     12.48908     10.46296        -0.000358     -0.001929      0.008662
Ir     11.16113      7.41691     10.32012         0.039523     -0.002842     -0.017676
Ir      8.80967      7.39285     11.58293         0.009713     -0.038399     -0.011087
Ir      7.48482     11.66422      7.65390         0.001470     -0.004754      0.005253
Ir     11.59616     12.09399      7.12429         0.002534     -0.000371     -0.003002
Ir     13.74334      8.97702      7.56059         0.001356      0.004183      0.012909
Ir     12.50143     13.95364      8.42057        -0.003954      0.005414     -0.002887
Ir      9.71823     11.26643      5.56916         0.005578      0.000547     -0.004373
Ir      9.08564     13.47200      7.07520        -0.007999     -0.004167      0.006511
Ir      9.28871      9.66377      7.53538        -0.003123      0.002318     -0.016966
Ir     13.25777      7.04122     11.95201         0.013252      0.003726      0.007678
Ir     13.55108      7.02654      9.12089         0.024454      0.015044     -0.009489
Ir     11.01827      7.60809     12.86179         0.019347     -0.008541     -0.007148
Ir     13.61476     11.55767      8.75763         0.001978      0.001941     -0.000262
Ir     11.50514      9.65917      6.23860        -0.000567     -0.005744     -0.009324
Ir      7.14512      9.19814      8.94774        -0.011573     -0.015848     -0.023040
Ir     14.05950     11.41998     11.66453        -0.004555      0.005656     -0.003936
Ir     11.65109      9.87068      8.90249         0.021054     -0.014342     -0.010863
Ir      9.42676      9.53177     10.25373         0.016723      0.005933     -0.004256
Ir     13.85725      9.39245     10.19139        -0.006347      0.014815     -0.012103
Ir     13.80528      9.15200     12.91764        -0.000138      0.001463     -0.020070
Ir     11.68337      9.76559     11.57561         0.015420      0.001250     -0.008123
Ir      9.91351     11.76103      8.97861        -0.004205     -0.013308     -0.001072
Ir      9.03458      7.44131      8.84869         0.029416     -0.014728     -0.024126
Ir     11.51099      7.59132      7.79313         0.044776     -0.022055     -0.017805
Ir      9.24445      9.50799     13.02213         0.012332     -0.011042      0.002704
Ir      7.52877     13.92739      8.99020        -0.000566     -0.009827      0.000476
Ir     10.90764     14.12896     11.94657        -0.015802     -0.016984     -0.004026
Ir     10.12777     14.17683      9.52175        -0.003724     -0.006350      0.001358
Ir      9.80165     11.71116     11.72779         0.007260     -0.018340      0.008400
Ir      7.59126     11.60472     10.21058        -0.002905     -0.015279     -0.003511
Ir      8.37550     13.77334     11.58531        -0.009952     -0.007028      0.004313
Ir      7.52958     11.60511     12.82978        -0.001818     -0.015269      0.005450
Ir      9.76584     11.64002     14.34449         0.005364     -0.008158      0.002772
Ir     13.50147     13.87756     12.19362        -0.010377     -0.008972     -0.000345
Ir     11.99725     12.06189     13.08933        -0.003416     -0.005510     -0.022338
Ir     11.56807      9.82128     14.21361         0.003542     -0.005347     -0.013053
Ir      7.14017      9.40985     11.50458        -0.013887     -0.019322      0.008554
