152
# total energy = -1059.04937207 eVH     10.35389      5.87395      7.64558        -0.122775      0.015599      1.037675
H     10.62451     15.10445      7.64558        -0.243323     -0.091858      1.016404
H     10.62451      5.87395     13.33282        -0.220955      0.069983     -0.818787
H     10.35389     15.10445     13.33282        -0.021288     -0.258282     -0.849514
H      7.64558     10.35389      5.87395         0.916472     -0.067150      0.233991
H      7.64558     10.62451     15.10445         0.327698     -0.066242     -0.095503
H     13.33282     10.62451      5.87395        -0.701809      0.000691      0.200359
H     13.33282     10.35389     15.10445        -0.348765      0.024839     -0.075226
H      5.87395      7.64558     10.35389         0.095479      0.386463     -0.120540
H     15.10445      7.64558     10.62451         0.158180      0.731736     -0.246113
H      5.87395     13.33282     10.62451        -0.100008     -1.154055      0.102150
H     15.10445     13.33282     10.35389        -0.024430     -0.328312      0.000170
H      5.87395     10.35389      7.64558         0.312265      0.076063      0.424722
H     15.10445     10.62451      7.64558        -0.221717     -0.110720      0.592175
H      5.87395     10.62451     13.33282        -0.062966      0.650903     -0.394051
H     15.10445     10.35389     13.33282         0.086896     -0.233727     -0.630291
H     10.35389      7.64558      5.87395         0.059955      0.578689      0.371475
H     10.62451      7.64558     15.10445         0.250475      0.932864     -0.008637
H     10.62451     13.33282      5.87395         0.068686     -0.477269      0.200256
H     10.35389     13.33282     15.10445         0.099724     -0.418780     -0.102248
H      7.64558      5.87395     10.35389         0.364463      0.082051     -0.098673
H      7.64558     15.10445     10.62451         0.387066     -0.045770      0.222295
H     13.33282      5.87395     10.62451        -0.288336      0.069681     -0.010388
H     13.33282     15.10445     10.35389        -0.660295     -0.061047      0.115106
H     12.45634     12.45634     19.01126         0.253037      0.264547     -0.231828
H     19.01126     19.01126     19.01126        -0.238858     -0.279482     -0.244049
H     19.01126     12.45634     12.45634        -0.254493      0.262555      0.242506
H     12.45634     19.01126     12.45634         0.277200     -0.237469      0.241005
C     10.35284      5.61067      6.59456         0.365545     -0.304189     -1.356369
C     10.62556     15.36773      6.59456        -0.018986      0.530319     -0.867652
C     10.62556      5.61067     14.38384         0.447430     -0.526883      0.893871
C     10.35284     15.36773     14.38384        -0.144189      0.219141      1.120311
C      6.59456     10.35284      5.61067        -1.411157      0.077647     -0.290311
C      6.59456     10.62556     15.36773        -0.620165      0.056761      0.279033
C     14.38384     10.62556      5.61067         0.960503     -0.040073     -0.477371
C     14.38384     10.35284     15.36773         0.572165     -0.062081      0.246270
C      5.61067      6.59456     10.35284        -0.330656     -0.492064      0.044193
C     15.36773      6.59456     10.62556         0.260766     -1.336078      0.091104
C      5.61067     14.38384     10.62556         0.013047      1.268119     -0.218964
C     15.36773     14.38384     10.35284         0.536802      0.650860     -0.017853
C      5.61067     10.35284      6.59456        -0.401303     -0.188120     -1.008641
C     15.36773     10.62556      6.59456         0.414798      0.052547     -0.954718
C      5.61067     10.62556     14.38384        -0.515984     -0.212867      1.375482
C     15.36773     10.35284     14.38384         0.383970      0.012728      1.369387
C     10.35284      6.59456      5.61067        -0.067235     -0.941608     -0.672871
C     10.62556      6.59456     15.36773        -0.196426     -0.930822      0.391848
C     10.62556     14.38384      5.61067        -0.327975      0.458382     -0.667095
C     10.35284     14.38384     15.36773        -0.098067      0.824168      0.409019
C      6.59456      5.61067     10.35284        -0.346538     -0.276194      0.137140
C      6.59456     15.36773     10.62556        -0.599845      0.640663      0.028408
C     14.38384      5.61067     10.62556         0.447436     -0.532112     -0.018571
C     14.38384     15.36773     10.35284         1.193566      0.649213     -0.061336
C     10.40319      3.19606      7.29314        -0.002879      0.524628     -0.342175
C     10.35913      4.25547      6.23373        -0.042905     -0.452642      0.354105
C      0.08601      7.29314      7.29314        -0.033667     -0.245828     -0.501057
C      0.13007      6.23373      6.23373        -0.109058      0.841583      0.085054
C      0.08601      3.19606      3.19606        -0.004034      0.659642      0.292606
C      0.13007      4.25547      4.25547        -0.003443     -0.336356     -0.378587
C     10.40319      7.29314      3.19606        -0.059671     -0.869815      0.509271
C     10.35913      6.23373      4.25547        -0.055461      0.384672     -0.142063
C      7.29314     10.40319      3.19606        -0.913449     -0.048335      0.124423
C      6.23373     10.35913      4.25547         0.234864      0.087796     -0.367645
C      7.29314      0.08601      7.29314        -0.355635      0.043916     -0.889505
C      6.23373      0.13007      6.23373         0.212364      0.116308      0.180853
C      3.19606      0.08601      3.19606         0.580550      0.010612      0.307768
C      4.25547      0.13007      4.25547        -0.166034     -0.009816     -0.248039
C      3.19606     10.40319      7.29314         0.288525     -0.023074     -0.885672
C      4.25547     10.35913      6.23373        -0.193785     -0.088110      0.139881
C      3.19606      7.29314     10.40319         0.608638     -0.399116     -0.003867
C      4.25547      6.23373     10.35913        -0.213977      0.157044      0.033110
C      7.29314      7.29314      0.08601        -0.373394     -0.404443     -0.020255
C      6.23373      6.23373      0.13007         0.344779      0.313104      0.000599
C      3.19606      3.19606      0.08601         0.287993      0.468165     -0.022703
C      4.25547      4.25547      0.13007        -0.517734     -0.225790     -0.051489
C      7.29314      3.19606     10.40319        -0.281787      0.644094     -0.016295
C      6.23373      4.25547     10.35913        -0.018109     -0.241216      0.053367
O     10.43466      3.58206      8.50569        -0.025771      0.147408      0.366591
O     10.54374     17.39634      8.50569         0.105811     -0.157225      0.617516
O     10.54374      3.58206     12.47271         0.024756      0.103166     -0.385653
O     10.43466     17.39634     12.47271         0.098101     -0.112738     -0.393575
O      8.50569     10.43466      3.58206         0.751049     -0.100033      0.125897
O      8.50569     10.54374     17.39634         0.312152      0.046292      0.001250
O     12.47271     10.54374      3.58206        -0.649331      0.092791      0.195919
O     12.47271     10.43466     17.39634        -0.271505      0.002098      0.017469
O      3.58206      8.50569     10.43466         0.069060      0.455367     -0.026636
O     17.39634      8.50569     10.54374        -0.056716      0.438841      0.058603
O      3.58206     12.47271     10.54374         0.098956     -0.550428      0.026531
O     17.39634     12.47271     10.43466        -0.184337     -0.739625     -0.069710
O      3.58206     10.43466      8.50569         0.250047     -0.046998      0.834443
O     17.39634     10.54374      8.50569        -0.262106      0.095686      0.795986
O      3.58206     10.54374     12.47271         0.032766     -0.034414     -0.326141
O     17.39634     10.43466     12.47271         0.051233     -0.012180     -0.199728
O     10.43466      8.50569      3.58206        -0.150021      0.590928      0.051151
O     10.54374      8.50569     17.39634         0.044807      0.435215     -0.110697
O     10.54374     12.47271      3.58206         0.095975     -0.673407      0.156294
O     10.43466     12.47271     17.39634        -0.051809     -0.596281     -0.202171
O      8.50569      3.58206     10.43466         0.376050      0.025600     -0.030851
O      8.50569     17.39634     10.54374         0.635920     -0.141214      0.052389
O     12.47271      3.58206     10.54374        -0.534351      0.140126      0.026128
O     12.47271     17.39634     10.43466        -0.623239     -0.163279      0.001598
O     11.90042     11.90042     19.56718        -0.279535     -0.317311      0.250092
O     19.56718     19.56718     19.56718         0.287628      0.327305      0.284374
O     19.56718     11.90042     11.90042         0.296995     -0.319296     -0.240606
O     11.90042     19.56718     11.90042        -0.306856      0.240750     -0.215207
O      9.45224      1.03696      9.45224        -0.069279      0.076472     -0.096809
O      1.03696      9.45224      9.45224         0.087147     -0.100066     -0.044538
O      1.03696      1.03696      1.03696         0.062298      0.017747      0.119957
O      9.45224      9.45224      1.03696        -0.012653     -0.111934      0.149815
Zr     10.48920      2.52580     10.48920         0.046984     -0.051409      0.042926
Zr     10.48920     18.45260     10.48920        -0.200860      0.251211     -0.286437
Zr     10.48920     10.48920      2.52580         0.055542      0.255690     -0.369945
Zr     10.48920     10.48920     18.45260        -0.011618     -0.160795      0.129189
Zr      2.52580     10.48920     10.48920        -0.209711      0.151485      0.165085
Zr     18.45260     10.48920     10.48920         0.154287     -0.124293      0.183000
Pd      9.31364     14.11273      9.78500         0.040782     -0.006191     -0.236198
Pd      8.74726     13.47761     13.07299        -0.056465      0.162719      0.069558
Pd     11.90878     14.54633      8.77432        -0.038960     -0.086710      0.061898
Pd     12.86050     12.89522     10.45987         0.028428     -0.067715      0.100686
Pd     12.28752      7.13472     12.83695        -0.050523      0.018349     -0.039448
Pd     11.37088     14.73699     11.68292        -0.088591     -0.077912      0.019121
Pd     10.33802     12.26268     11.31043        -0.166237      0.055396     -0.040210
Pd     13.39740     12.20460      7.90279         0.036990     -0.057055      0.032350
Pd     11.30442     11.48632      6.17516         0.083307      0.040028     -0.025951
Pd      7.70572      8.48161      7.78523         0.117937      0.078092     -0.182979
Pd      8.65539     11.71130      7.06038         0.073139      0.025504     -0.057356
Pd     10.18625      9.52304      8.37315         0.169792     -0.041949     -0.093299
Pd      8.60173     14.41796      7.23496        -0.077815     -0.004775     -0.192435
Pd     12.13866      9.03498      6.76593         0.144095      0.016600     -0.100064
Pd      9.54934      9.47063      5.77064         0.128758      0.029803     -0.028531
Pd      6.58569      9.49809     12.05844         0.331274      0.066260      0.038117
Pd     12.35643      6.62254      7.90680        -0.135746     -0.011105     -0.075090
Pd      6.00306     10.55146      9.59807        -0.029620     -0.023284      0.048720
Pd      7.52996      7.12498     12.70295        -0.003801      0.001610      0.099935
Ir     11.97419      9.74001     13.12454        -0.135741     -0.055351     -0.151630
Ir     13.76663      8.82648     11.50673        -0.170557      0.049397     -0.156985
Ir      9.51052      8.65084     13.69818        -0.007614      0.063623      0.032505
Ir     10.45046     11.07474     14.61490         0.163174     -0.096174      0.155380
Ir      7.22710     12.08977     11.45508         0.147616      0.012385     -0.092427
Ir     14.90289     10.70588      9.89598        -0.104743      0.040253      0.002482
Ir     12.27808     10.47768      9.66401         0.070626     -0.109449      0.146457
Ir      8.68784     10.83719     12.93166         0.080910      0.124042      0.234904
Ir     10.32159      9.71481     11.30770        -0.050464      0.120058      0.084686
Ir     13.80215     11.23788     12.06617         0.071814      0.106286      0.174242
Ir     11.97674     12.41233     13.14036        -0.061789     -0.084023     -0.055479
Ir      8.56152     11.15478      9.59975        -0.051444     -0.082237     -0.147709
Ir     11.80005      7.94380     10.10327        -0.154740      0.022461     -0.093855
Ir      7.09757     12.97261      8.78901         0.044029     -0.050809     -0.032265
Ir      9.59427      7.00770      9.09765        -0.039672     -0.071835     -0.100847
Ir      8.17985      8.71801     10.28208        -0.120016     -0.131227     -0.159969
Ir     10.75769     12.14950      8.62280         0.049007     -0.118084      0.014503
Ir      9.87288      7.22161     11.58674        -0.057514     -0.028044     -0.015756
Ir     13.77806      8.70096      8.72556        -0.095259     -0.031175      0.049000
