152
# total energy = -1061.40125991 eVH     10.35389      5.87395      7.64558        -0.134270      0.126661      0.976325
H     10.62451     15.10445      7.64558         0.277499     -0.084951      0.825433
H     10.62451      5.87395     13.33282        -0.135460      0.084196     -0.498618
H     10.35389     15.10445     13.33282         0.079396     -0.207126     -0.409083
H      7.64558     10.35389      5.87395         0.888278      0.120008      0.209480
H      7.64558     10.62451     15.10445         0.197306     -0.011005     -0.062741
H     13.33282     10.62451      5.87395        -0.645994     -0.010906      0.170953
H     13.33282     10.35389     15.10445        -0.324827     -0.075060     -0.057264
H      5.87395      7.64558     10.35389         0.139073      0.358309     -0.047393
H     15.10445      7.64558     10.62451        -0.134676      0.564231      0.239865
H      5.87395     13.33282     10.62451         0.127378     -0.566517      0.047363
H     15.10445     13.33282     10.35389        -0.240775     -0.434672      0.091427
H      5.87395     10.35389      7.64558         0.186085      0.207199      0.369851
H     15.10445     10.62451      7.64558        -0.165660     -0.245450      0.588547
H      5.87395     10.62451     13.33282         0.031248      0.126311     -0.717572
H     15.10445     10.35389     13.33282         0.085365     -0.271348     -0.719014
H     10.35389      7.64558      5.87395        -0.098715      0.434181      0.245541
H     10.62451      7.64558     15.10445         0.417394      0.677523     -0.103102
H     10.62451     13.33282      5.87395         0.204562     -0.584369      0.113276
H     10.35389     13.33282     15.10445         0.187156     -0.715989     -0.073231
H      7.64558      5.87395     10.35389         0.449128      0.155483     -0.089657
H      7.64558     15.10445     10.62451         0.443725     -0.167323      0.368678
H     13.33282      5.87395     10.62451        -0.369452      0.153976     -0.061304
H     13.33282     15.10445     10.35389        -0.555739     -0.257843      0.133179
H     12.45634     12.45634     19.01126         0.236953      0.264671     -0.243377
H     19.01126     19.01126     19.01126        -0.258904     -0.263811     -0.226983
H     19.01126     12.45634     12.45634        -0.232158      0.270091      0.241857
H     12.45634     19.01126     12.45634         0.282963     -0.210628      0.250205
C     10.35284      5.61067      6.59456         0.294627     -0.287983     -0.859985
C     10.62556     15.36773      6.59456        -0.205576      0.648430     -0.325898
C     10.62556      5.61067     14.38384         0.272956     -0.329654      0.512669
C     10.35284     15.36773     14.38384        -0.124220      0.263545      0.301959
C      6.59456     10.35284      5.61067        -0.838182     -0.138249     -0.213926
C      6.59456     10.62556     15.36773        -0.554054      0.055434      0.349811
C     14.38384     10.62556      5.61067         0.911477     -0.029540     -0.581599
C     14.38384     10.35284     15.36773         0.271883     -0.089432      0.369969
C      5.61067      6.59456     10.35284        -0.380742     -0.422027      0.049161
C     15.36773      6.59456     10.62556         0.278570     -0.655891     -0.130624
C      5.61067     14.38384     10.62556        -0.167428      0.545368     -0.293195
C     15.36773     14.38384     10.35284         0.397008      0.817437     -0.110231
C      5.61067     10.35284      6.59456        -0.271613     -0.132532     -0.158615
C     15.36773     10.62556      6.59456         0.218437      0.223904     -0.477960
C      5.61067     10.62556     14.38384        -0.352897     -0.023820      1.223433
C     15.36773     10.35284     14.38384         0.290539     -0.049483      0.984822
C     10.35284      6.59456      5.61067         0.058076     -0.302434     -0.453548
C     10.62556      6.59456     15.36773        -0.024001     -0.865860      0.239750
C     10.62556     14.38384      5.61067        -0.404908      0.028057     -0.813652
C     10.35284     14.38384     15.36773        -0.235547      0.908826      0.232791
C      6.59456      5.61067     10.35284        -0.387021     -0.279528      0.202546
C      6.59456     15.36773     10.62556        -0.496051      0.560619      0.014362
C     14.38384      5.61067     10.62556         0.423454     -0.324511      0.065781
C     14.38384     15.36773     10.35284         0.870354      0.273455     -0.063437
C     10.40319      3.19606      7.29314         0.002105      0.585165     -0.314783
C     10.35913      4.25547      6.23373        -0.000303     -0.488520      0.429034
C      0.08601      7.29314      7.29314        -0.017231     -0.886771     -0.495720
C      0.13007      6.23373      6.23373        -0.157361      0.863291      0.149090
C      0.08601      3.19606      3.19606        -0.013250      0.367675      0.380112
C      0.13007      4.25547      4.25547         0.060680     -0.175745     -0.633105
C     10.40319      7.29314      3.19606        -0.047937     -1.102339      0.826170
C     10.35913      6.23373      4.25547         0.012358      0.337577     -0.187585
C      7.29314     10.40319      3.19606        -1.138834     -0.075390      0.356579
C      6.23373     10.35913      4.25547         0.274228      0.028189     -0.637576
C      7.29314      0.08601      7.29314        -0.929342     -0.003663     -0.414360
C      6.23373      0.13007      6.23373         0.255282      0.037073      0.124569
C      3.19606      0.08601      3.19606         0.327436     -0.003330      0.398308
C      4.25547      0.13007      4.25547        -0.281495     -0.045177     -0.167858
C      3.19606     10.40319      7.29314         0.496706     -0.046668     -1.040859
C      4.25547     10.35913      6.23373        -0.294438     -0.056075      0.116333
C      3.19606      7.29314     10.40319         0.946938     -0.499909      0.007867
C      4.25547      6.23373     10.35913        -0.146097      0.164560     -0.000246
C      7.29314      7.29314      0.08601        -0.429241     -0.277748     -0.005879
C      6.23373      6.23373      0.13007         0.237251      0.080140     -0.138835
C      3.19606      3.19606      0.08601         0.338782      0.737709     -0.009721
C      4.25547      4.25547      0.13007        -0.416876     -0.207037      0.049839
C      7.29314      3.19606     10.40319        -0.207794      0.557691      0.020963
C      6.23373      4.25547     10.35913         0.029445     -0.290850      0.024224
O     10.43466      3.58206      8.50569        -0.021668      0.128578      0.360112
O     10.54374     17.39634      8.50569         0.054885      0.058509      0.306527
O     10.54374      3.58206     12.47271         0.041977      0.202195     -0.571383
O     10.43466     17.39634     12.47271         0.029860     -0.005614     -0.446888
O      8.50569     10.43466      3.58206         0.740900     -0.071717      0.049343
O      8.50569     10.54374     17.39634         0.904841      0.025304     -0.160806
O     12.47271     10.54374      3.58206        -0.344142      0.043130      0.068489
O     12.47271     10.43466     17.39634        -0.363677     -0.030806      0.055269
O      3.58206      8.50569     10.43466        -0.058079      0.352993     -0.080671
O     17.39634      8.50569     10.54374        -0.114333      0.437085      0.035407
O      3.58206     12.47271     10.54374         0.133125     -0.739762     -0.011413
O     17.39634     12.47271     10.43466        -0.251811     -0.668135     -0.012761
O      3.58206     10.43466      8.50569         0.129304     -0.041192      0.811184
O     17.39634     10.54374      8.50569         0.033246      0.044441      0.295634
O      3.58206     10.54374     12.47271         0.072062      0.018178     -0.454995
O     17.39634     10.43466     12.47271         0.005455      0.018578     -0.299241
O     10.43466      8.50569      3.58206        -0.066348      0.582806     -0.081849
O     10.54374      8.50569     17.39634         0.021304      0.897823     -0.206048
O     10.54374     12.47271      3.58206         0.061412     -0.361158      0.087141
O     10.43466     12.47271     17.39634        -0.060484     -0.651364     -0.200201
O      8.50569      3.58206     10.43466         0.335425      0.065668     -0.052537
O      8.50569     17.39634     10.54374         0.511715     -0.137229      0.007365
O     12.47271      3.58206     10.54374        -0.390697      0.081247      0.030095
O     12.47271     17.39634     10.43466        -0.741875     -0.105977      0.061681
O     11.90042     11.90042     19.56718        -0.249937     -0.280609      0.231408
O     19.56718     19.56718     19.56718         0.290576      0.300366      0.244336
O     19.56718     11.90042     11.90042         0.231089     -0.298565     -0.286107
O     11.90042     19.56718     11.90042        -0.279496      0.178897     -0.261362
O      9.45224      1.03696      9.45224        -0.120961      0.109318     -0.083626
O      1.03696      9.45224      9.45224         0.147023     -0.134754     -0.168882
O      1.03696      1.03696      1.03696         0.136959      0.202084     -0.007582
O      9.45224      9.45224      1.03696        -0.215050     -0.162685      0.047425
Zr     10.48920      2.52580     10.48920         0.017217     -0.244273      0.171528
Zr     10.48920     18.45260     10.48920        -0.272655      0.262868     -0.217440
Zr     10.48920     10.48920      2.52580         0.296311      0.442456     -0.220412
Zr     10.48920     10.48920     18.45260         0.039906     -0.012645      0.503913
Zr      2.52580     10.48920     10.48920        -0.550270      0.061660      0.343198
Zr     18.45260     10.48920     10.48920         0.276393     -0.167527      0.028363
Pd      9.09235     14.52114      9.20661         0.091535     -0.049657      0.005506
Pd      8.38953     13.25084     13.77146         0.010201     -0.028740      0.047108
Pd     12.03256     14.18115      8.72453         0.056344     -0.010855     -0.056879
Pd     12.29893     12.76493     10.89835        -0.092072     -0.054241      0.025466
Pd     11.84662      7.09345     12.03821        -0.040929     -0.007389     -0.025778
Pd     11.04259     15.31917     10.95174         0.004469     -0.060271      0.000946
Pd      9.62941     13.08919     11.42725         0.084720      0.063466     -0.043890
Pd     13.99068     12.46771      8.12382        -0.021786     -0.007133      0.044647
Pd     11.64442     11.73404      6.79453        -0.003310      0.021357      0.034843
Pd      7.54627      8.51425      7.23492        -0.009291     -0.006296      0.021658
Pd      8.70140     11.97534      6.90324         0.009555      0.039879     -0.004661
Pd      9.82135      9.84112      8.04328         0.046025     -0.090303      0.045557
Pd      8.48619     14.62206      6.54643         0.001049     -0.010852      0.048552
Pd     12.15230      9.04281      6.91030        -0.037369      0.039766      0.030908
Pd     10.01737      9.97444      5.42376        -0.015186     -0.016546      0.028070
Pd      6.94001      9.17650     12.21594        -0.043492     -0.032468     -0.025271
Pd     12.44461      6.53453      7.76560        -0.032481     -0.058175      0.005085
Pd      5.60885     10.59516     10.07769         0.035410      0.007523      0.011337
Pd      7.65430      6.64212     12.84038        -0.051470     -0.007881     -0.062101
Ir     11.29621      9.57192     12.92944         0.054148     -0.023479      0.005877
Ir     13.10410      9.23438     11.19821         0.109278      0.089226      0.010786
Ir      9.16741      8.44885     13.84553         0.025614      0.022996      0.000239
Ir     10.25192     10.40537     15.14828         0.062264      0.021714     -0.022482
Ir      7.10416     11.84688     11.83176        -0.122661      0.089269     -0.029175
Ir     14.50070     11.13261     10.41030        -0.138464     -0.029591      0.028402
Ir     12.35115     10.59677      9.14900        -0.107422      0.100203     -0.099083
Ir      8.92698     10.80322     12.94867         0.019518      0.037810     -0.036584
Ir     10.05451     10.27548     10.68750         0.004238     -0.000104     -0.058275
Ir     13.30116     11.25442     12.66838         0.024239     -0.009791     -0.041393
Ir     11.09822     12.05606     13.41345         0.036908      0.040123     -0.045269
Ir      7.98319     11.68527      9.51912        -0.019163     -0.048379      0.007271
Ir     11.35813      8.13883      9.56264        -0.112436     -0.027190     -0.058063
Ir      6.92390     13.40620      8.24141         0.064368      0.033111     -0.010723
Ir      9.15114      7.25711      8.88533         0.033109     -0.023324     -0.092168
Ir      7.81220      9.16528      9.75912        -0.044027      0.118304     -0.017023
Ir     10.39464     12.27428      9.00251         0.064847      0.081263     -0.008403
Ir      9.37456      7.88337     11.34466         0.033215     -0.029149     -0.016625
Ir     13.82025      8.46405      8.90164        -0.072024     -0.004194     -0.026215
