9
# total energy = -63.86507047 eVH      2.51574      2.85783     -0.00000         0.061668     -0.120331      0.000000
H      0.05476      6.59705      0.00000        -0.061668      0.120331     -0.000000
C      1.25342      8.07783     -0.00000        -0.214631     -0.225332     -0.000000
C      1.31708      1.37706      0.00000         0.214631      0.225332      0.000000
C     -0.00191      8.83056      0.00000        -0.075961     -0.110815     -0.000000
C      0.00191      0.69452     -0.00000         0.075961      0.110815     -0.000000
N      1.53292      2.69644     -0.00000         0.053149      0.176777      0.000000
N      1.03758      6.75845     -0.00000        -0.053149     -0.176777      0.000000
Ir      1.28525      4.72744     -0.00000         0.000000      0.000000     -0.000000
