35
# total energy = -301.58184761 eVC      6.68675     10.29568      7.65289         0.003965     -0.007725      0.003299
C      8.07378      9.94414      7.58024        -0.002896     -0.006593      0.002521
C      9.41805      5.70988      7.65044        -0.003707      0.003723     -0.002330
C      1.46289      5.34739      7.66965         0.005233     -0.001458      0.003296
C      4.19574      0.76214      7.63576        -0.005764      0.003544      0.000768
C      2.80841      1.11321      7.56604         0.001951      0.004499      0.001402
C      0.70465      4.16515      7.64596         0.006287     -0.002418      0.003166
C      1.09087      2.78757      7.57247         0.004426      0.001782      0.001321
C      5.35896      1.54957      7.64638        -0.006852      0.002161     -0.004019
C      5.52341      9.50857      7.67313         0.001117     -0.002048      0.003069
C     10.17682      6.89198      7.64355        -0.003134      0.004194      0.000549
C      9.79142      8.27002      7.57543        -0.005213     -0.002353      0.000079
C      0.77678      6.57672      7.64844        -0.003850      0.006341      0.002316
C      1.26203      7.92394      7.57932        -0.005381     -0.004450      0.001171
C     10.10459      4.48061      7.64268         0.003655     -0.008523     -0.000006
C      9.62025      3.13357      7.56746         0.002582      0.005799     -0.000891
C      4.27760     10.16447      7.65253        -0.009010      0.000629      0.002580
C      2.94278      9.64624      7.58068         0.005868      0.001971      0.002586
C      6.60478      0.89339      7.63803         0.008177     -0.000163     -0.001373
C      7.93951      1.41100      7.56479        -0.005260     -0.002373     -0.002001
N      8.80947      0.32109      7.47630         0.002472     -0.015448      0.000006
N      0.15139      8.76673      7.48629        -0.014307      0.003352      0.000083
N      8.54007      8.70432      7.60185         0.009457      0.010732     -0.005677
N      2.34215      2.35287      7.59487        -0.009393     -0.008855     -0.005235
N      2.07290     10.73562      7.48782        -0.004857      0.015604      0.002177
N     10.73176      2.29105      7.48102         0.016814      0.000964      0.001102
N      2.57497      8.32390      7.60003        -0.002033      0.002080     -0.004084
N      8.30733      2.73330      7.58157         0.003204     -0.001834     -0.009114
O      5.32873      2.87869      7.61981        -0.003385     -0.001479     -0.009592
O      5.55314      8.17923      7.68056         0.004727      0.000973      0.012399
O      8.08865      5.70749      7.62049         0.002040      0.003678     -0.008560
O      2.79258      5.34989      7.68110        -0.004034     -0.003946      0.010309
Zr      6.53755      4.46005      7.58132         0.003843     -0.001017     -0.022840
Zr      4.34355      6.59788      7.69066         0.002742      0.000507      0.015183
Zr      0.02684     10.81042      6.85297         0.000517     -0.001849      0.006337
