152
# total energy = -1024.30072237 eVH     10.35389      5.87395      7.64558         0.469257      0.044181      0.737910
H     10.62451     15.10445      7.64558         0.009790     -0.185728      0.582748
H     10.62451      5.87395     13.33282         0.112296      0.157888     -0.591386
H     10.35389     15.10445     13.33282        -0.409246     -0.056270     -0.766467
H      7.64558     10.35389      5.87395         0.341238      0.008275      0.174071
H      7.64558     10.62451     15.10445         0.871795     -0.350767     -0.026359
H     13.33282     10.62451      5.87395        -0.762607     -0.046018      0.153058
H     13.33282     10.35389     15.10445        -0.875360     -0.387781      0.192723
H      5.87395      7.64558     10.35389         0.211502      0.599607     -0.052140
H     15.10445      7.64558     10.62451        -0.141097      0.400410     -0.041881
H      5.87395     13.33282     10.62451         0.163977     -0.520570     -0.110063
H     15.10445     13.33282     10.35389        -0.088421     -1.162474      0.005561
H      5.87395     10.35389      7.64558         0.136131      0.133469      0.505544
H     15.10445     10.62451      7.64558         0.046100      0.073784      1.032051
H      5.87395     10.62451     13.33282         0.110273     -0.042936     -0.420641
H     15.10445     10.35389     13.33282        -0.113873     -0.161748     -0.584507
H     10.35389      7.64558      5.87395         0.031125      0.969596      0.249110
H     10.62451      7.64558     15.10445         0.012316      0.279486     -0.176903
H     10.62451     13.33282      5.87395        -0.087549     -0.439605      0.324170
H     10.35389     13.33282     15.10445        -0.437851     -0.642581     -0.027478
H      7.64558      5.87395     10.35389         0.479899      0.120226      0.039108
H      7.64558     15.10445     10.62451         0.885941     -0.260035     -0.024552
H     13.33282      5.87395     10.62451        -0.573122      0.138108     -0.078599
H     13.33282     15.10445     10.35389        -0.648389     -0.056074      0.222922
H     12.45634     12.45634     19.01126         0.238727      0.275039     -0.235637
H     19.01126     19.01126     19.01126        -0.252511     -0.246457     -0.242581
H     19.01126     12.45634     12.45634        -0.261891      0.268587      0.221552
H     12.45634     19.01126     12.45634         0.231367     -0.264463      0.242438
C     10.35284      5.61067      6.59456        -0.193767     -0.620361      0.060746
C     10.62556     15.36773      6.59456        -0.021906      0.375781     -0.757647
C     10.62556      5.61067     14.38384        -0.015955     -0.070483      0.712472
C     10.35284     15.36773     14.38384         0.152167      0.722581      0.188855
C      6.59456     10.35284      5.61067        -0.373279     -0.024661     -0.271494
C      6.59456     10.62556     15.36773        -1.015886      0.353048      0.380796
C     14.38384     10.62556      5.61067         0.419347      0.317291     -0.607340
C     14.38384     10.35284     15.36773         0.957061     -0.009761      0.350196
C      5.61067      6.59456     10.35284        -0.387907     -0.462050      0.248939
C     15.36773      6.59456     10.62556         0.197432     -0.526278      0.029148
C      5.61067     14.38384     10.62556        -0.183144      0.576641      0.013299
C     15.36773     14.38384     10.35284         0.353611      0.021261     -0.127936
C      5.61067     10.35284      6.59456        -0.308330     -0.065640     -0.922095
C     15.36773     10.62556      6.59456         0.779092     -0.297669     -1.049893
C      5.61067     10.62556     14.38384        -0.486404      0.007614      0.290911
C     15.36773     10.35284     14.38384         0.664665     -0.104642      1.112664
C     10.35284      6.59456      5.61067        -0.248033     -0.625925     -0.846473
C     10.62556      6.59456     15.36773         0.051261     -0.292292      0.079822
C     10.62556     14.38384      5.61067         0.105314      1.220372     -0.438124
C     10.35284     14.38384     15.36773         0.221953      0.118992      0.699451
C      6.59456      5.61067     10.35284        -0.360272     -0.729982      0.072452
C      6.59456     15.36773     10.62556        -1.210561      0.281300      0.076456
C     14.38384      5.61067     10.62556         0.910604     -0.280338      0.026093
C     14.38384     15.36773     10.35284        -0.503286      0.756603     -0.320333
C     10.40319      3.19606      7.29314        -0.016169      0.826491     -0.391678
C     10.35913      4.25547      6.23373         0.042786     -0.457001      0.570275
C      0.08601      7.29314      7.29314        -0.017647     -0.490382     -0.350565
C      0.13007      6.23373      6.23373        -0.018916      0.017715      0.095263
C      0.08601      3.19606      3.19606        -0.000802      1.225914      0.186607
C      0.13007      4.25547      4.25547        -0.051577     -0.218608     -0.221509
C     10.40319      7.29314      3.19606        -0.003029     -1.038526      0.391915
C     10.35913      6.23373      4.25547         0.023248      0.465274     -0.650924
C      7.29314     10.40319      3.19606        -0.370976      0.042964      0.809523
C      6.23373     10.35913      4.25547         0.221826      0.089144     -0.114701
C      7.29314      0.08601      7.29314        -0.591826     -0.022575     -0.264758
C      6.23373      0.13007      6.23373         0.382723     -0.064375      0.453395
C      3.19606      0.08601      3.19606         0.901111     -0.013370      0.345579
C      4.25547      0.13007      4.25547        -0.106058     -0.051515     -0.500917
C      3.19606     10.40319      7.29314         0.472330     -0.001704     -0.771837
C      4.25547     10.35913      6.23373        -0.256788      0.105437      0.248361
C      3.19606      7.29314     10.40319         0.488649     -1.347815     -0.043701
C      4.25547      6.23373     10.35913        -0.378232      0.813808      0.048185
C      7.29314      7.29314      0.08601        -0.413986     -0.228538     -0.009145
C      6.23373      6.23373      0.13007         0.162426      0.144365     -0.015132
C      3.19606      3.19606      0.08601         0.248017      0.258801     -0.020138
C      4.25547      4.25547      0.13007        -0.101549     -0.050749      0.017923
C      7.29314      3.19606     10.40319        -0.362178      0.682315      0.011408
C      6.23373      4.25547     10.35913         1.106757      0.041723      0.007063
O     10.43466      3.58206      8.50569        -0.030020      0.058418      0.448636
O     10.54374     17.39634      8.50569        -0.004193     -0.086891      0.434002
O     10.54374      3.58206     12.47271         0.044617     -0.093070     -0.141281
O     10.43466     17.39634     12.47271        -0.056663     -0.048693     -0.475746
O      8.50569     10.43466      3.58206         0.310389     -0.032410     -0.046280
O      8.50569     10.54374     17.39634         0.681710      0.026842     -0.168921
O     12.47271     10.54374      3.58206        -0.731231     -0.035262      0.140779
O     12.47271     10.43466     17.39634        -0.437680     -0.027042     -0.041368
O      3.58206      8.50569     10.43466         0.136468      1.085353     -0.002175
O     17.39634      8.50569     10.54374        -0.082719      0.409744      0.064927
O      3.58206     12.47271     10.54374         0.068777     -0.411600      0.040350
O     17.39634     12.47271     10.43466        -0.160412     -0.698310      0.004400
O      3.58206     10.43466      8.50569         0.025676     -0.072488      0.655301
O     17.39634     10.54374      8.50569        -0.066160      0.043802      0.334328
O      3.58206     10.54374     12.47271        -0.007698      0.025066     -0.304029
O     17.39634     10.43466     12.47271        -0.244283      0.019138     -0.746019
O     10.43466      8.50569      3.58206         0.113535      0.837956      0.199272
O     10.54374      8.50569     17.39634         0.035455      0.674891     -0.162282
O     10.54374     12.47271      3.58206        -0.015737     -1.014265      0.206846
O     10.43466     12.47271     17.39634        -0.028961     -0.883784     -0.193425
O      8.50569      3.58206     10.43466         0.522885      0.102970     -0.019198
O      8.50569     17.39634     10.54374         0.532312     -0.209796     -0.015053
O     12.47271      3.58206     10.54374        -0.466708      0.156058      0.056382
O     12.47271     17.39634     10.43466        -0.379341      0.043143     -0.009261
O     11.90042     11.90042     19.56718        -0.275617     -0.324685      0.261010
O     19.56718     19.56718     19.56718         0.281470      0.283974      0.287019
O     19.56718     11.90042     11.90042         0.290345     -0.303780     -0.199174
O     11.90042     19.56718     11.90042        -0.269952      0.278711     -0.246511
O      9.45224      1.03696      9.45224        -0.086774      0.055495     -0.053937
O      1.03696      9.45224      9.45224         0.034471     -0.174973     -0.111177
O      1.03696      1.03696      1.03696         0.003715      0.114971      0.215191
O      9.45224      9.45224      1.03696        -0.060597     -0.088277      0.134022
Zr     10.48920      2.52580     10.48920        -0.022601     -0.120583     -0.172842
Zr     10.48920     18.45260     10.48920         0.020479      0.236783     -0.030245
Zr     10.48920     10.48920      2.52580        -0.091544     -0.172514     -0.542672
Zr     10.48920     10.48920     18.45260        -0.033543      0.039638      0.464569
Zr      2.52580     10.48920     10.48920        -0.366692      0.316569      0.102295
Zr     18.45260     10.48920     10.48920         0.202832      0.037685     -0.249084
Pd      8.56828      9.90921     13.22586        -0.023945      0.018402      0.024654
Pd     10.53040      9.51032     10.27265         0.044589     -0.042283     -0.021838
Pd     13.35942      8.73227     12.49300        -0.016130      0.009585     -0.003937
Pd     10.43768     10.63875     15.09594         0.005292      0.015336     -0.032326
Pd     12.98138     11.35450     13.47160        -0.047283      0.005527     -0.008240
Pd     14.95624     10.70966     11.29979        -0.041254     -0.006424      0.020435
Pd      6.83616      7.85784     12.53039        -0.032770     -0.027636     -0.053542
Pd      9.23008      7.22678      9.57497        -0.010925      0.036916      0.006778
Pd      9.49731      7.55013     12.31075         0.081617     -0.010721     -0.055906
Pd     11.75547      7.20288     10.95629        -0.062231     -0.025454      0.006857
Pd     11.59673      7.86322      8.35208         0.018155     -0.015047     -0.002296
Pd      7.16222     11.74274     11.62781         0.026255     -0.027945     -0.042308
Pd      9.20623     14.34581      9.36651         0.012313      0.013386      0.001132
Pd      8.16096     12.40044     14.20983         0.006143     -0.013801     -0.027999
Pd     14.14106     14.19949      8.35850         0.031550      0.015097     -0.036514
Pd     11.64702     13.33490      8.82549         0.096868      0.073965      0.047178
Pd     14.09437     11.62217      8.95421        -0.018024      0.026381     -0.009945
Pd      8.75252     13.93127     12.13945        -0.001260     -0.011250     -0.040358
Pd     12.20592     13.91820     13.97860        -0.043103     -0.003996      0.018122
Pd     11.38646     14.09367     11.37151         0.005362     -0.000700     -0.023817
Pd     14.03062     13.42828     12.10860         0.018018     -0.040289     -0.019831
Pd     12.32751     11.59764     10.89536        -0.008556     -0.012980      0.048195
Pd     12.89443     12.61868      6.61224         0.014546      0.013306     -0.019574
Pd     13.90188      8.88134      7.59101         0.036893     -0.010485     -0.005306
Pd      6.95946      8.46516      8.50182         0.027960      0.013619      0.004012
Pd      5.54998     10.03004     10.22993         0.065185      0.007101     -0.039776
Pd      9.35724      9.49246      7.56828        -0.009964     -0.045962     -0.018003
Pd      8.50127      7.01057      6.96613         0.006942     -0.015362      0.004148
Pd      9.67550     11.94692     10.56879        -0.044631      0.019345      0.045778
Pd     11.74135     10.65062      8.09766         0.038179      0.000512      0.057671
Pd     11.70558      8.98637      5.91557         0.022171     -0.023962      0.000884
Pd     10.47701     11.35151      5.79153        -0.033819      0.023992      0.017358
Ir     11.04418      9.66023     12.74635        -0.002608     -0.037745      0.015689
Ir     13.17897      9.30319      9.99314        -0.032440      0.021763     -0.020562
Ir     10.51235     12.10616     12.94347         0.027681      0.052753     -0.006285
Ir      7.69647     11.02225      9.13689        -0.054154     -0.057121      0.027606
Ir      9.48810     12.11260      8.02046         0.022971     -0.007016     -0.098511
Ir      8.06150      9.25333     10.80085        -0.075338      0.005063     -0.013502
