152
# total energy = -1060.59402478 eVH     10.35389      5.87395      7.64558        -0.263941      0.141610      1.038789
H     10.62451     15.10445      7.64558         0.171548     -0.092528      0.803077
H     10.62451      5.87395     13.33282        -0.306106      0.071692     -0.687306
H     10.35389     15.10445     13.33282         0.106557     -0.294843     -0.649943
H      7.64558     10.35389      5.87395         0.790823     -0.152523      0.212790
H      7.64558     10.62451     15.10445         0.228673      0.035659     -0.059060
H     13.33282     10.62451      5.87395        -0.680472     -0.043849      0.174492
H     13.33282     10.35389     15.10445        -0.314086     -0.089777     -0.046440
H      5.87395      7.64558     10.35389         0.103780      0.403087     -0.002682
H     15.10445      7.64558     10.62451        -0.099704      0.789787      0.330475
H      5.87395     13.33282     10.62451         0.014744     -0.722635      0.070769
H     15.10445     13.33282     10.35389        -0.234442     -0.419891      0.056385
H      5.87395     10.35389      7.64558         0.276533      0.071587      0.349740
H     15.10445     10.62451      7.64558        -0.164792     -0.109952      0.462390
H      5.87395     10.62451     13.33282         0.001618      0.334963     -0.704634
H     15.10445     10.35389     13.33282         0.124211     -0.366601     -0.834748
H     10.35389      7.64558      5.87395        -0.036541      0.486731      0.326015
H     10.62451      7.64558     15.10445         0.242953      0.634355     -0.114402
H     10.62451     13.33282      5.87395         0.086168     -0.640770      0.162135
H     10.35389     13.33282     15.10445         0.098215     -0.416976     -0.114542
H      7.64558      5.87395     10.35389         0.437045      0.143901      0.041613
H      7.64558     15.10445     10.62451         0.381699     -0.132763      0.241125
H     13.33282      5.87395     10.62451        -0.303495      0.109673      0.011584
H     13.33282     15.10445     10.35389        -0.603572     -0.221889      0.200894
H     12.45634     12.45634     19.01126         0.253381      0.266757     -0.228532
H     19.01126     19.01126     19.01126        -0.250279     -0.268550     -0.233948
H     19.01126     12.45634     12.45634        -0.236271      0.266270      0.246278
H     12.45634     19.01126     12.45634         0.298036     -0.218002      0.236982
C     10.35284      5.61067      6.59456         0.424784     -0.333894     -1.170214
C     10.62556     15.36773      6.59456        -0.266420      0.716896     -0.672638
C     10.62556      5.61067     14.38384         0.340416     -0.281010      0.712802
C     10.35284     15.36773     14.38384        -0.178497      0.327433      0.781070
C      6.59456     10.35284      5.61067        -0.973726     -0.034949     -0.180430
C      6.59456     10.62556     15.36773        -0.628853      0.064193      0.350172
C     14.38384     10.62556      5.61067         1.248354     -0.033646     -0.589348
C     14.38384     10.35284     15.36773         0.310281     -0.106149      0.390580
C      5.61067      6.59456     10.35284        -0.309013     -0.598068     -0.003562
C     15.36773      6.59456     10.62556         0.305475     -0.953572     -0.263351
C      5.61067     14.38384     10.62556        -0.206022      0.832331     -0.285503
C     15.36773     14.38384     10.35284         0.422461      0.859948     -0.091161
C      5.61067     10.35284      6.59456        -0.258155     -0.121513     -0.489793
C     15.36773     10.62556      6.59456         0.220759      0.094635     -0.416676
C      5.61067     10.62556     14.38384        -0.333755     -0.142072      1.220609
C     15.36773     10.35284     14.38384         0.198553      0.079655      1.145615
C     10.35284      6.59456      5.61067        -0.030066     -0.551219     -0.414765
C     10.62556      6.59456     15.36773        -0.007018     -0.759480      0.370741
C     10.62556     14.38384      5.61067        -0.433899      0.303149     -0.761176
C     10.35284     14.38384     15.36773        -0.196388      0.678965      0.408273
C      6.59456      5.61067     10.35284        -0.539347     -0.321069      0.062810
C      6.59456     15.36773     10.62556        -0.256927      0.490863      0.066892
C     14.38384      5.61067     10.62556         0.315659     -0.399355      0.091890
C     14.38384     15.36773     10.35284         0.985100      0.325481     -0.079053
C     10.40319      3.19606      7.29314        -0.001039      0.790011     -0.361905
C     10.35913      4.25547      6.23373         0.032315     -0.410061      0.315325
C      0.08601      7.29314      7.29314        -0.009082     -0.591340     -0.524170
C      0.13007      6.23373      6.23373        -0.084579      0.806989      0.071332
C      0.08601      3.19606      3.19606        -0.021588      0.449151      0.293732
C      0.13007      4.25547      4.25547         0.070357     -0.203589     -0.615990
C     10.40319      7.29314      3.19606        -0.036559     -1.156150      0.882664
C     10.35913      6.23373      4.25547        -0.019475      0.375798     -0.214611
C      7.29314     10.40319      3.19606        -0.933846     -0.052164      0.318458
C      6.23373     10.35913      4.25547         0.330976      0.095568     -0.504525
C      7.29314      0.08601      7.29314        -0.834902      0.014016     -0.398193
C      6.23373      0.13007      6.23373         0.149891      0.055023      0.110044
C      3.19606      0.08601      3.19606         0.472956     -0.002964      0.223006
C      4.25547      0.13007      4.25547        -0.207708     -0.080830     -0.200724
C      3.19606     10.40319      7.29314         0.477419     -0.037654     -1.029229
C      4.25547     10.35913      6.23373        -0.167585     -0.015265      0.151754
C      3.19606      7.29314     10.40319         0.722132     -0.440902      0.013490
C      4.25547      6.23373     10.35913        -0.107339      0.162154     -0.000497
C      7.29314      7.29314      0.08601        -0.378960     -0.303973     -0.023184
C      6.23373      6.23373      0.13007         0.284618      0.126898     -0.166228
C      3.19606      3.19606      0.08601         0.324001      0.589318     -0.016344
C      4.25547      4.25547      0.13007        -0.434066     -0.284182      0.005057
C      7.29314      3.19606     10.40319        -0.257361      0.641916      0.009319
C      6.23373      4.25547     10.35913         0.028475     -0.193338      0.012624
O     10.43466      3.58206      8.50569        -0.033541      0.067186      0.274290
O     10.54374     17.39634      8.50569         0.068471     -0.049183      0.462962
O     10.54374      3.58206     12.47271         0.042346      0.164632     -0.491441
O     10.43466     17.39634     12.47271         0.060757     -0.007981     -0.496661
O      8.50569     10.43466      3.58206         0.654355     -0.082678      0.076400
O      8.50569     10.54374     17.39634         0.811056      0.074389     -0.124626
O     12.47271     10.54374      3.58206        -0.462571      0.092036      0.143554
O     12.47271     10.43466     17.39634        -0.325663     -0.007960      0.059487
O      3.58206      8.50569     10.43466         0.007597      0.435678     -0.080747
O     17.39634      8.50569     10.54374        -0.118740      0.439314      0.036134
O      3.58206     12.47271     10.54374         0.141928     -0.623585     -0.007843
O     17.39634     12.47271     10.43466        -0.256301     -0.746231     -0.004393
O      3.58206     10.43466      8.50569         0.170429     -0.039354      0.833065
O     17.39634     10.54374      8.50569         0.010412      0.035888      0.321578
O      3.58206     10.54374     12.47271         0.033103      0.009129     -0.350896
O     17.39634     10.43466     12.47271        -0.036236      0.005057     -0.346480
O     10.43466      8.50569      3.58206        -0.072025      0.565377     -0.125732
O     10.54374      8.50569     17.39634         0.039364      0.655958     -0.102599
O     10.54374     12.47271      3.58206         0.078656     -0.453179      0.098985
O     10.43466     12.47271     17.39634        -0.055156     -0.779218     -0.277280
O      8.50569      3.58206     10.43466         0.351088      0.023625     -0.064293
O      8.50569     17.39634     10.54374         0.545057     -0.135578      0.049600
O     12.47271      3.58206     10.54374        -0.476474      0.123652      0.022253
O     12.47271     17.39634     10.43466        -0.624037     -0.092934      0.051800
O     11.90042     11.90042     19.56718        -0.261809     -0.279272      0.222829
O     19.56718     19.56718     19.56718         0.291570      0.306428      0.277442
O     19.56718     11.90042     11.90042         0.257417     -0.307492     -0.275486
O     11.90042     19.56718     11.90042        -0.310183      0.189525     -0.222184
O      9.45224      1.03696      9.45224        -0.128373      0.138948     -0.051641
O      1.03696      9.45224      9.45224         0.150974     -0.152167     -0.070584
O      1.03696      1.03696      1.03696         0.109910      0.122691      0.034206
O      9.45224      9.45224      1.03696        -0.128874     -0.163954      0.093345
Zr     10.48920      2.52580     10.48920         0.035500     -0.197647      0.195121
Zr     10.48920     18.45260     10.48920        -0.194263      0.253066     -0.365066
Zr     10.48920     10.48920      2.52580         0.166246      0.471917     -0.182671
Zr     10.48920     10.48920     18.45260         0.006196     -0.198531      0.328505
Zr      2.52580     10.48920     10.48920        -0.379832      0.091371      0.315784
Zr     18.45260     10.48920     10.48920         0.234481     -0.150984      0.003285
Pd      9.26414     14.40949      9.14213        -0.031619      0.191093     -0.008543
Pd      8.45948     13.59594     13.28169        -0.020372     -0.036110      0.132236
Pd     11.96487     14.43286      8.84550         0.003215     -0.028347      0.189765
Pd     12.42404     12.78249     10.83606        -0.055487      0.061036      0.096473
Pd     12.04622      7.11707     12.47520         0.016793      0.123202     -0.132230
Pd     11.00101     15.15805     11.31852         0.048139     -0.034035     -0.109633
Pd      9.76290     12.85063     11.09472         0.044646      0.037573      0.248715
Pd     13.57858     12.39149      8.18196         0.095345      0.010124     -0.094895
Pd     11.65965     11.72344      6.34970        -0.145783     -0.135850      0.139912
Pd      7.75378      8.19694      7.47602         0.035885      0.089859     -0.082262
Pd      8.73643     11.83861      6.86264         0.144004     -0.070868     -0.057121
Pd      9.96117      9.66183      8.17149        -0.095645     -0.052946      0.050251
Pd      8.46357     14.50340      6.57988         0.118199      0.072092      0.048056
Pd     12.27731      9.17692      7.06772         0.014741      0.004585     -0.164240
Pd     10.02350      9.74136      5.52757        -0.065219      0.049152      0.031776
Pd      6.88201      9.32448     12.23085         0.029582      0.052707      0.153597
Pd     12.27960      6.62619      7.89292        -0.109289     -0.081711     -0.005927
Pd      5.78990     10.49197      9.87236        -0.036502      0.041288      0.025821
Pd      7.55626      6.91408     13.18219         0.005313     -0.033332     -0.040923
Ir     11.46769      9.64615     13.08037        -0.324775     -0.005443     -0.053780
Ir     13.32993      9.20004     11.44356        -0.009408     -0.125833      0.042699
Ir      9.16530      8.73997     13.96674         0.155102      0.139479      0.098300
Ir     10.32780     10.66780     15.16477        -0.002644      0.047072     -0.169721
Ir      7.18571     11.93358     11.58253        -0.244559      0.061752     -0.194268
Ir     14.57574     11.11835     10.41026        -0.039697     -0.048460      0.232083
Ir     12.32705     10.48045      9.43452         0.262814     -0.056935     -0.153809
Ir      8.90118     11.01226     12.96012         0.256390     -0.345678      0.265449
Ir     10.06431     10.07094     10.87868         0.063368      0.012395      0.149761
Ir     13.42125     11.37166     12.71382        -0.021366      0.113854     -0.165895
Ir     11.15741     12.16774     13.23934         0.045448      0.007444     -0.090627
Ir      8.25370     11.36422      9.38146        -0.147018      0.118088     -0.073686
Ir     11.47643      8.04164      9.96174         0.140884     -0.027239     -0.175128
Ir      7.08537     13.24621      8.44267        -0.023301     -0.156818     -0.075716
Ir      9.39506      7.03851      9.19052        -0.170682     -0.010947     -0.122516
Ir      7.93400      8.91663      9.95769         0.149761     -0.004994     -0.081761
Ir     10.66538     12.16234      8.68738        -0.019273     -0.040635      0.055310
Ir      9.48698      7.75339     11.66240        -0.047389     -0.013154      0.041630
Ir     13.84447      8.39572      9.06767        -0.097523      0.242097     -0.033439
