152
# total energy = -1060.15232332 eVH     10.35389      5.87395      7.64558        -0.319002      0.100592      1.088813
H     10.62451     15.10445      7.64558         0.079029     -0.070547      0.899412
H     10.62451      5.87395     13.33282        -0.267617      0.072911     -0.781031
H     10.35389     15.10445     13.33282         0.092491     -0.303597     -0.820174
H      7.64558     10.35389      5.87395         0.892773     -0.199077      0.207902
H      7.64558     10.62451     15.10445         0.316406     -0.029459     -0.060681
H     13.33282     10.62451      5.87395        -0.885381      0.218737      0.219856
H     13.33282     10.35389     15.10445        -0.281296     -0.028821     -0.061681
H      5.87395      7.64558     10.35389         0.093879      0.419615     -0.013717
H     15.10445      7.64558     10.62451        -0.041786      0.439612     -0.027795
H      5.87395     13.33282     10.62451        -0.019778     -0.968753      0.076362
H     15.10445     13.33282     10.35389        -0.083014     -0.324725      0.002814
H      5.87395     10.35389      7.64558         0.319700      0.061721      0.370346
H     15.10445     10.62451      7.64558        -0.120696     -0.160176      0.665252
H      5.87395     10.62451     13.33282        -0.061100      0.450845     -0.597985
H     15.10445     10.35389     13.33282         0.225623     -0.638452     -0.869393
H     10.35389      7.64558      5.87395        -0.020528      0.500524      0.345462
H     10.62451      7.64558     15.10445         0.338855      0.791656     -0.002411
H     10.62451     13.33282      5.87395         0.152555     -0.568815      0.201783
H     10.35389     13.33282     15.10445         0.035720     -0.288979     -0.167521
H      7.64558      5.87395     10.35389         0.370919      0.114002      0.063463
H      7.64558     15.10445     10.62451         0.386824     -0.127616      0.179577
H     13.33282      5.87395     10.62451        -0.306477      0.136837     -0.013713
H     13.33282     15.10445     10.35389        -0.656691     -0.107599      0.137356
H     12.45634     12.45634     19.01126         0.259074      0.272057     -0.226444
H     19.01126     19.01126     19.01126        -0.247779     -0.267678     -0.244367
H     19.01126     12.45634     12.45634        -0.249163      0.271346      0.237072
H     12.45634     19.01126     12.45634         0.289891     -0.235269      0.235497
C     10.35284      5.61067      6.59456         0.404404     -0.422736     -1.361121
C     10.62556     15.36773      6.59456        -0.169181      0.610360     -0.663074
C     10.62556      5.61067     14.38384         0.365374     -0.276702      0.772945
C     10.35284     15.36773     14.38384        -0.204739      0.213647      1.020314
C      6.59456     10.35284      5.61067        -1.390551      0.030214     -0.227292
C      6.59456     10.62556     15.36773        -0.669052      0.064741      0.356443
C     14.38384     10.62556      5.61067         1.308561     -0.186440     -0.628744
C     14.38384     10.35284     15.36773         0.316921     -0.130747      0.348963
C      5.61067      6.59456     10.35284        -0.274991     -0.671786     -0.029360
C     15.36773      6.59456     10.62556         0.409168     -0.861276      0.027112
C      5.61067     14.38384     10.62556        -0.147350      1.196333     -0.218784
C     15.36773     14.38384     10.35284         0.503504      0.701812     -0.036933
C      5.61067     10.35284      6.59456        -0.374349     -0.102726     -0.785543
C     15.36773     10.62556      6.59456         0.402540      0.107657     -0.682265
C      5.61067     10.62556     14.38384        -0.412809     -0.162716      1.217389
C     15.36773     10.35284     14.38384         0.236153      0.225289      1.416458
C     10.35284      6.59456      5.61067        -0.070026     -0.746434     -0.548168
C     10.62556      6.59456     15.36773        -0.144269     -0.985321      0.375940
C     10.62556     14.38384      5.61067        -0.493883      0.378753     -0.738903
C     10.35284     14.38384     15.36773        -0.175762      0.751676      0.499495
C      6.59456      5.61067     10.35284        -0.562069     -0.335201      0.004149
C      6.59456     15.36773     10.62556        -0.362567      0.446766      0.064587
C     14.38384      5.61067     10.62556         0.432940     -0.311956      0.008407
C     14.38384     15.36773     10.35284         1.130171      0.489405     -0.077852
C     10.40319      3.19606      7.29314        -0.006779      0.772625     -0.334417
C     10.35913      4.25547      6.23373         0.022193     -0.381675      0.290741
C      0.08601      7.29314      7.29314        -0.018690     -0.377751     -0.506273
C      0.13007      6.23373      6.23373        -0.047097      0.883338      0.093894
C      0.08601      3.19606      3.19606        -0.007362      0.693539      0.260243
C      0.13007      4.25547      4.25547         0.045353     -0.265462     -0.546744
C     10.40319      7.29314      3.19606        -0.063956     -1.114001      0.618806
C     10.35913      6.23373      4.25547        -0.046675      0.346099     -0.201097
C      7.29314     10.40319      3.19606        -1.091587     -0.054791      0.201275
C      6.23373     10.35913      4.25547         0.378267      0.101273     -0.518350
C      7.29314      0.08601      7.29314        -0.473900      0.028957     -0.447363
C      6.23373      0.13007      6.23373         0.181359      0.122581      0.121490
C      3.19606      0.08601      3.19606         0.698248      0.022988      0.173135
C      4.25547      0.13007      4.25547        -0.172479     -0.050806     -0.364081
C      3.19606     10.40319      7.29314         0.364131     -0.026308     -0.950783
C      4.25547     10.35913      6.23373        -0.127902     -0.055362      0.113848
C      3.19606      7.29314     10.40319         0.616511     -0.400257      0.002619
C      4.25547      6.23373     10.35913        -0.115775      0.176254      0.011348
C      7.29314      7.29314      0.08601        -0.428776     -0.296780     -0.015165
C      6.23373      6.23373      0.13007         0.151989      0.153863     -0.063509
C      3.19606      3.19606      0.08601         0.294221      0.492123     -0.024798
C      4.25547      4.25547      0.13007        -0.404490     -0.240701     -0.030908
C      7.29314      3.19606     10.40319        -0.284506      0.595165     -0.009908
C      6.23373      4.25547     10.35913         0.015926     -0.092876      0.014515
O     10.43466      3.58206      8.50569        -0.026446      0.075768      0.305406
O     10.54374     17.39634      8.50569         0.064305     -0.124565      0.594182
O     10.54374      3.58206     12.47271         0.029352      0.101988     -0.398368
O     10.43466     17.39634     12.47271         0.094549     -0.063529     -0.432993
O      8.50569     10.43466      3.58206         0.733632     -0.071995      0.015771
O      8.50569     10.54374     17.39634         0.531754      0.061245     -0.105882
O     12.47271     10.54374      3.58206        -0.653808      0.112950      0.209722
O     12.47271     10.43466     17.39634        -0.279383      0.004437      0.034903
O      3.58206      8.50569     10.43466         0.033944      0.444999     -0.062758
O     17.39634      8.50569     10.54374        -0.053257      0.446495      0.056531
O      3.58206     12.47271     10.54374         0.104263     -0.588112      0.004207
O     17.39634     12.47271     10.43466        -0.180320     -0.741813     -0.049587
O      3.58206     10.43466      8.50569         0.209494     -0.061274      0.808258
O     17.39634     10.54374      8.50569        -0.073091      0.072246      0.494703
O      3.58206     10.54374     12.47271        -0.002376     -0.005740     -0.264016
O     17.39634     10.43466     12.47271         0.035203     -0.010249     -0.233280
O     10.43466      8.50569      3.58206        -0.108158      0.532510     -0.101289
O     10.54374      8.50569     17.39634         0.058583      0.510481     -0.087255
O     10.54374     12.47271      3.58206         0.102809     -0.636944      0.129855
O     10.43466     12.47271     17.39634        -0.066569     -0.687863     -0.274452
O      8.50569      3.58206     10.43466         0.397123      0.022430     -0.046007
O      8.50569     17.39634     10.54374         0.641952     -0.154426      0.046056
O     12.47271      3.58206     10.54374        -0.517577      0.121332      0.028621
O     12.47271     17.39634     10.43466        -0.625381     -0.124897      0.041082
O     11.90042     11.90042     19.56718        -0.278812     -0.304572      0.222954
O     19.56718     19.56718     19.56718         0.309932      0.322509      0.297706
O     19.56718     11.90042     11.90042         0.283936     -0.325424     -0.235866
O     11.90042     19.56718     11.90042        -0.314273      0.229043     -0.201726
O      9.45224      1.03696      9.45224        -0.073319      0.086005     -0.080983
O      1.03696      9.45224      9.45224         0.099983     -0.107920     -0.062333
O      1.03696      1.03696      1.03696         0.079703      0.053773      0.097675
O      9.45224      9.45224      1.03696        -0.058467     -0.126143      0.135707
Zr     10.48920      2.52580     10.48920         0.044077     -0.093519      0.122320
Zr     10.48920     18.45260     10.48920        -0.183738      0.246868     -0.359600
Zr     10.48920     10.48920      2.52580         0.111960      0.358398     -0.343951
Zr     10.48920     10.48920     18.45260        -0.078384     -0.259817      0.234465
Zr      2.52580     10.48920     10.48920        -0.239974      0.132458      0.244338
Zr     18.45260     10.48920     10.48920         0.195883     -0.138415     -0.017850
Pd      9.36184     14.30101      9.31278         0.004214      0.025053     -0.031415
Pd      8.58886     13.63562     13.05033         0.007160     -0.001256      0.030643
Pd     12.02430     14.40676      8.74324         0.010586     -0.005895      0.010138
Pd     12.75517     12.87513     10.67592        -0.039765      0.000380      0.032280
Pd     12.12043      7.19389     12.67574         0.001870     -0.004758      0.003072
Pd     11.16116     14.90156     11.45397        -0.020813      0.029716     -0.021306
Pd     10.03321     12.55507     11.08910        -0.039889      0.035521     -0.022628
Pd     13.48279     12.15662      7.98254         0.010838      0.010332      0.009606
Pd     11.48007     11.54330      6.11025         0.009872      0.016518     -0.003632
Pd      7.94287      8.37690      7.52363        -0.001549     -0.034027     -0.007365
Pd      8.72216     11.75739      6.84652        -0.005865      0.005945     -0.003617
Pd     10.32014      9.45473      8.15128        -0.023028     -0.001742      0.015309
Pd      8.49732     14.46451      6.79068        -0.010519      0.004240     -0.022443
Pd     12.39672      9.02015      6.57302        -0.016453      0.025892      0.035886
Pd      9.71907      9.60988      5.57333         0.008446      0.005565      0.004395
Pd      6.81206      9.44995     12.13715         0.025940      0.009500     -0.002005
Pd     12.17858      6.74172      7.95235         0.012728      0.008451      0.007065
Pd      5.91542     10.48347      9.68900         0.001991     -0.005121      0.007631
Pd      7.55010      7.23910     13.40553         0.009590     -0.003351     -0.016225
Ir     11.73727      9.77891     13.06672        -0.005940     -0.017058     -0.005455
Ir     13.55357      9.05766     11.47611        -0.017823     -0.000442      0.013579
Ir      9.42729      8.86237     14.00975        -0.021911     -0.019733      0.006139
Ir     10.50280     11.02885     14.87584        -0.002542     -0.033294      0.067989
Ir      7.26735     12.01580     11.34036         0.013140     -0.012269      0.009354
Ir     14.65446     10.90870     10.14847        -0.003549      0.024358      0.025413
Ir     12.16811     10.56717      9.67290         0.000033     -0.015762     -0.012669
Ir      8.74085     10.99366     12.98878         0.000267      0.033707     -0.024609
Ir     10.10904      9.91897     11.17437        -0.002123      0.015786     -0.022668
Ir     13.74196     11.41978     12.48312        -0.041230      0.008404      0.043109
Ir     11.59810     12.35963     13.08360        -0.066496     -0.025268      0.009665
Ir      8.50011     11.09885      9.33628        -0.018646      0.018479      0.004286
Ir     11.59366      8.02784     10.14259         0.015493     -0.001257      0.004924
Ir      7.21845     13.03210      8.65624         0.009688      0.005143      0.015488
Ir      9.54876      6.96204      9.23994         0.008658     -0.007657     -0.001016
Ir      8.05536      8.76478     10.05752        -0.007873      0.008189     -0.001718
Ir     10.72426     12.12290      8.50592         0.001167      0.005131     -0.000001
Ir      9.51544      7.57441     11.75573        -0.000774      0.000878      0.007049
Ir     13.67149      8.79059      8.84246         0.016206     -0.002556      0.022742
