26
# total energy = -177.58547354 eVH      0.09098      6.30105      7.50000        -0.022828      0.023469     -0.000000
H      2.97792      1.80400      7.50000         0.007185      0.002975     -0.000000
H      5.45939      5.37028      7.50000         0.011850      0.035859     -0.000000
H      8.38074     -2.58740      7.50000         0.022828     -0.023469     -0.000000
H      5.49379      1.90965      7.50000        -0.007185     -0.002975     -0.000000
H      3.01232     -1.65664      7.50000        -0.011850     -0.035859     -0.000000
C      7.54987      2.58244      7.50000         0.003807      0.001953     -0.000000
C      1.43526     -0.23621      7.50000        -0.023563      0.025213      0.000000
C      7.96034     -4.70051      7.50000         0.070036      0.003321     -0.000000
C      0.92184      1.13120      7.50000        -0.003807     -0.001953     -0.000000
C      7.03645      3.94985      7.50000         0.023563     -0.025213      0.000000
C      0.51137      8.41416      7.50000        -0.070036     -0.003321     -0.000000
C      7.58336     -3.32665      7.50000        -0.016931      0.030326     -0.000000
C      6.53262      1.58036      7.50000         0.034009     -0.006707      0.000000
C      2.80149     -0.58130      7.50000        -0.012705     -0.016173      0.000000
C      0.88835      7.04030      7.50000         0.016931     -0.030326      0.000000
C      1.93909      2.13329      7.50000        -0.034009      0.006707     -0.000000
C      5.67023      4.29494      7.50000         0.012705      0.016173     -0.000000
O      6.38862     -2.81302      7.50000         0.024240      0.004587      0.000000
O      6.73313      0.29893      7.50000        -0.034410     -0.025051      0.000000
O      3.89959      0.13279      7.50000        -0.023985     -0.023073      0.000000
O      2.08309      6.52666      7.50000        -0.024240     -0.004587      0.000000
O      1.73858      3.41472      7.50000         0.034410      0.025051     -0.000000
O      4.57212      3.58086      7.50000         0.023985      0.023073     -0.000000
Ir      5.42691     -1.15782      7.50000        -0.003022      0.024814     -0.000000
Ir      3.04480      4.87147      7.50000         0.003022     -0.024814     -0.000000
