152
# total energy = -1110.37893764 eVH     10.35389      5.87395      7.64558        -0.357065     -0.139265      1.074795
H     10.62451     15.10445      7.64558         0.357348      0.081720      0.941514
H     10.62451      5.87395     13.33282        -0.321236     -0.697598     -1.384543
H     10.35389     15.10445     13.33282        -0.612574      0.415335     -0.327687
H      7.64558     10.35389      5.87395         0.541160     -0.528088     -0.087905
H      7.64558     10.62451     15.10445         0.376016     -0.240817      0.045819
H     13.33282     10.62451      5.87395        -0.553473      0.630912     -0.034008
H     13.33282     10.35389     15.10445        -0.527588      0.406804      0.161412
H      5.87395      7.64558     10.35389         0.147655      0.535189      0.033797
H     15.10445      7.64558     10.62451         0.430921      0.958053      0.264879
H      5.87395     13.33282     10.62451        -0.224468     -0.481824      0.362404
H     15.10445     13.33282     10.35389         0.028618     -0.303696     -0.383759
H      5.87395     10.35389      7.64558        -0.081368     -0.370401      1.438949
H     15.10445     10.62451      7.64558         0.213927      0.470631      1.299737
H      5.87395     10.62451     13.33282        -0.192767     -0.360395     -1.181176
H     15.10445     10.35389     13.33282         0.575044      0.932773     -1.521913
H     10.35389      7.64558      5.87395        -0.549545      0.505942     -0.179989
H     10.62451      7.64558     15.10445        -0.140853      0.500678      0.182330
H     10.62451     13.33282      5.87395         0.883095     -1.373078     -0.320310
H     10.35389     13.33282     15.10445         0.257554     -0.556855     -0.088689
H      7.64558      5.87395     10.35389         0.715533      0.172714     -0.154997
H      7.64558     15.10445     10.62451         1.981414      0.776832      0.214203
H     13.33282      5.87395     10.62451        -2.685651     -0.949598     -0.470554
H     13.33282     15.10445     10.35389        -0.877457     -0.049761     -0.249888
H     12.45634     12.45634     19.01126         0.271847      0.258077     -0.227016
H     19.01126     19.01126     19.01126        -0.266914     -0.254873     -0.238179
H     19.01126     12.45634     12.45634        -0.283058      0.281277      0.186839
H     12.45634     19.01126     12.45634         0.255829     -0.251026      0.236259
C     10.35284      5.61067      6.59456         0.083683     -0.500212     -1.232419
C     10.62556     15.36773      6.59456         0.170944      0.758358     -0.817313
C     10.62556      5.61067     14.38384         0.183442     -0.315635      1.805915
C     10.35284     15.36773     14.38384         0.102985      0.385238      1.805119
C      6.59456     10.35284      5.61067        -1.131483     -0.109923     -0.864660
C      6.59456     10.62556     15.36773        -0.696484     -0.101362      0.767833
C     14.38384     10.62556      5.61067         0.863543     -0.109640     -1.000662
C     14.38384     10.35284     15.36773         1.199016      0.166599      1.103005
C      5.61067      6.59456     10.35284        -0.672810     -0.865318     -0.178464
C     15.36773      6.59456     10.62556         1.974543     -0.257096     -0.183269
C      5.61067     14.38384     10.62556        -1.574691     -0.004810     -0.127970
C     15.36773     14.38384     10.35284         0.486595      0.073450      0.013951
C      5.61067     10.35284      6.59456        -0.278308      0.194610     -1.341859
C     15.36773     10.62556      6.59456         0.284633     -0.232189     -0.999334
C      5.61067     10.62556     14.38384        -0.261631      0.421408      1.452324
C     15.36773     10.35284     14.38384         0.049823     -0.443100      1.928301
C     10.35284      6.59456      5.61067        -0.180849     -0.885781     -0.685689
C     10.62556      6.59456     15.36773        -0.109012     -0.765923      1.056923
C     10.62556     14.38384      5.61067        -0.498470      2.013818     -0.779084
C     10.35284     14.38384     15.36773        -0.277999      1.421975      0.488674
C      6.59456      5.61067     10.35284        -0.968798     -0.410753      0.085121
C      6.59456     15.36773     10.62556        -1.299471      0.374183     -0.328898
C     14.38384      5.61067     10.62556         1.283716     -1.250238      0.182935
C     14.38384     15.36773     10.35284         0.440150      0.314326      0.072015
C     10.40319      3.19606      7.29314         0.001782      0.308844     -0.103079
C     10.35913      4.25547      6.23373         0.139103     -0.535827      0.018478
C      0.08601      7.29314      7.29314        -0.053064     -0.298529     -0.424405
C      0.13007      6.23373      6.23373        -0.122419      0.707144      0.029247
C      0.08601      3.19606      3.19606        -0.107181      1.632201      0.171804
C      0.13007      4.25547      4.25547        -0.085022     -0.400569     -1.233672
C     10.40319      7.29314      3.19606         0.016395     -0.430831      0.124499
C     10.35913      6.23373      4.25547         0.260491      0.083107     -0.507686
C      7.29314     10.40319      3.19606        -1.667554      0.007689      0.324493
C      6.23373     10.35913      4.25547         0.654471      0.076167     -0.607996
C      7.29314      0.08601      7.29314        -0.405158     -0.012094     -0.307150
C      6.23373      0.13007      6.23373         0.680804     -0.054827      0.263652
C      3.19606      0.08601      3.19606         0.655823     -0.016084      0.186336
C      4.25547      0.13007      4.25547        -0.373452     -0.075388     -0.529611
C      3.19606     10.40319      7.29314         0.368209      0.019321     -0.315373
C      4.25547     10.35913      6.23373        -0.722700      0.066838      0.365685
C      3.19606      7.29314     10.40319         0.294449     -0.211905     -0.006403
C      4.25547      6.23373     10.35913         0.045166      0.645482      0.091737
C      7.29314      7.29314      0.08601        -0.718046     -0.606337     -0.020814
C      6.23373      6.23373      0.13007         0.870915      1.129986     -0.071941
C      3.19606      3.19606      0.08601         0.815723      0.503879      0.008462
C      4.25547      4.25547      0.13007        -0.326568     -1.743436     -0.129491
C      7.29314      3.19606     10.40319        -0.330149      0.275649     -0.003448
C      6.23373      4.25547     10.35913         0.508199     -0.028354      0.230021
O     10.43466      3.58206      8.50569        -0.048245      0.183017      0.258785
O     10.54374     17.39634      8.50569         0.042203     -0.232251      0.484435
O     10.54374      3.58206     12.47271         0.083806     -0.062823     -0.036617
O     10.43466     17.39634     12.47271        -0.023344     -0.140873     -0.274955
O      8.50569     10.43466      3.58206         0.982239      0.185480      0.385881
O      8.50569     10.54374     17.39634         0.572620      0.084776     -0.228232
O     12.47271     10.54374      3.58206        -0.424545     -0.038105      0.187205
O     12.47271     10.43466     17.39634        -0.516738     -0.069503     -0.196568
O      3.58206      8.50569     10.43466         0.182416      0.432371     -0.029888
O     17.39634      8.50569     10.54374        -0.230112      0.714503      0.044404
O      3.58206     12.47271     10.54374         0.160596     -0.675158      0.025391
O     17.39634     12.47271     10.43466        -0.185565     -0.479671     -0.011770
O      3.58206     10.43466      8.50569         0.223128     -0.059714      0.401522
O     17.39634     10.54374      8.50569        -0.171251      0.036963      0.410955
O      3.58206     10.54374     12.47271         0.146949      0.021105     -0.305660
O     17.39634     10.43466     12.47271         0.070895     -0.049842     -0.083029
O     10.43466      8.50569      3.58206         0.000526      0.277105      0.181558
O     10.54374      8.50569     17.39634         0.070611      0.437196     -0.180026
O     10.54374     12.47271      3.58206        -0.221897     -0.967586      0.344440
O     10.43466     12.47271     17.39634        -0.084191     -0.449432     -0.244957
O      8.50569      3.58206     10.43466         0.494411      0.196435     -0.011826
O      8.50569     17.39634     10.54374         0.662991     -0.198212      0.022224
O     12.47271      3.58206     10.54374        -0.741850      0.278643      0.036558
O     12.47271     17.39634     10.43466        -0.438030     -0.202685     -0.043956
O     11.90042     11.90042     19.56718        -0.346217     -0.307348      0.259507
O     19.56718     19.56718     19.56718         0.325164      0.311929      0.282809
O     19.56718     11.90042     11.90042         0.276862     -0.276487     -0.140411
O     11.90042     19.56718     11.90042        -0.306190      0.286507     -0.233829
O      9.45224      1.03696      9.45224        -0.058867      0.072135     -0.047026
O      1.03696      9.45224      9.45224         0.035823     -0.073272     -0.071829
O      1.03696      1.03696      1.03696         0.058413      0.141624      0.102118
O      9.45224      9.45224      1.03696        -0.134889     -0.090780      0.102302
Zr     10.48920      2.52580     10.48920         0.153590     -0.167160     -0.162775
Zr     10.48920     18.45260     10.48920        -0.097782      0.180855     -0.045518
Zr     10.48920     10.48920      2.52580         0.331953     -0.308965     -0.197660
Zr     10.48920     10.48920     18.45260         0.006479     -0.086516      0.205852
Zr      2.52580     10.48920     10.48920        -0.067587      0.171469     -0.051554
Zr     18.45260     10.48920     10.48920         0.140521     -0.127224     -0.249026
Ir     12.04762     12.48392     10.46053        -0.006832      0.001576      0.001255
Ir     11.19298      7.41725     10.29496         0.015443     -0.003895     -0.025315
Ir      8.83674      7.36945     11.56224         0.010764     -0.015815     -0.015420
Ir      7.48321     11.65548      7.66181        -0.009753     -0.002492     -0.000098
Ir     11.59218     12.08804      7.12347         0.001212     -0.008685     -0.004970
Ir     13.76138      8.99095      7.54937         0.008089     -0.002331     -0.006238
Ir     12.48466     13.95554      8.41939        -0.008002      0.000441     -0.005046
Ir      9.72400     11.26335      5.56233         0.013210     -0.009566     -0.006875
Ir      9.08015     13.46846      7.07706        -0.003991     -0.019090      0.001389
Ir      9.27780      9.66388      7.52352         0.000263      0.007331     -0.019385
Ir     13.27825      7.03890     11.95624         0.005085      0.005989     -0.000702
Ir     13.59438      7.03783      9.11721         0.011310      0.003163     -0.010547
Ir     11.03718      7.59997     12.84165         0.012544     -0.007115     -0.019902
Ir     13.60817     11.56371      8.75462        -0.003412     -0.000836      0.001332
Ir     11.50297      9.64665      6.23514        -0.000731     -0.006762     -0.009048
Ir      7.15147      9.17025      8.93807         0.002705     -0.008014     -0.010140
Ir     14.06237     11.43264     11.65828        -0.004333      0.001702     -0.002579
Ir     11.65346      9.85658      8.88918         0.011954     -0.022758     -0.012506
Ir      9.43241      9.51447     10.24441         0.013465     -0.003897     -0.002887
Ir     13.86575      9.40547     10.18529         0.010227      0.006821     -0.007680
Ir     13.81443      9.15985     12.90291         0.010768      0.001498     -0.008188
Ir     11.68909      9.76333     11.56355         0.010804     -0.000609     -0.010183
Ir      9.90804     11.74513      8.97387         0.000984      0.000882     -0.002003
Ir      9.07273      7.43394      8.81984         0.019672     -0.007194     -0.024430
Ir     11.56719      7.56597      7.76873         0.037468     -0.020412     -0.015951
Ir      9.25208      9.48703     13.01713         0.006460     -0.006884     -0.001718
Ir      7.51851     13.91098      8.99638        -0.004073     -0.010353     -0.000918
Ir     10.88545     14.11097     11.95182        -0.014161     -0.003570     -0.001665
Ir     10.11754     14.16139      9.52417        -0.006230     -0.015991     -0.005602
Ir      9.79280     11.69402     11.72845         0.003488     -0.010257      0.002118
Ir      7.58547     11.57913     10.21567         0.005344     -0.007381     -0.008517
Ir      8.35659     13.75288     11.58866        -0.008425     -0.010538     -0.004521
Ir      7.52515     11.57251     12.83109         0.000417     -0.016540     -0.001885
Ir      9.76943     11.62095     14.34419         0.004632     -0.018354      0.001283
Ir     13.48238     13.88204     12.19120        -0.009574      0.004182     -0.001201
Ir     11.99423     12.05101     13.08364        -0.008233     -0.001690     -0.002902
Ir     11.57371      9.80603     14.20459         0.007623     -0.010036     -0.010453
Ir      7.14811      9.37324     11.49969         0.003699     -0.014802     -0.004901
