37
# total energy = -267.21141765 eVH      6.13890     10.67825      7.49840        -0.000000      0.039263      0.000000
H      6.13890      1.59955      7.49840         0.000000     -0.039263      0.000000
H      1.59955      6.13890      7.49840        -0.039263     -0.000000      0.000000
H     10.67825      6.13890      7.49840         0.039263      0.000000      0.000000
C      6.13890      9.59411      7.49840         0.000000     -0.163280     -0.000000
C      6.13890      2.68369      7.49840        -0.000000      0.163280      0.000000
C      2.68369      6.13890      7.49840         0.163280     -0.000000      0.000000
C      9.59411      6.13890      7.49840        -0.163280     -0.000000     -0.000000
C      3.25483      7.39647      7.49840        -0.100381     -0.167804      0.000000
C      9.02297      4.88133      7.49840         0.100381      0.167804      0.000000
C      4.88133      3.25483      7.49840         0.167804     -0.100381      0.000000
C      7.39647      9.02297      7.49840        -0.167804      0.100381     -0.000000
C      9.02297      7.39647      7.49840         0.100381     -0.167804      0.000000
C      3.25483      4.88133      7.49840        -0.100381      0.167804     -0.000000
C      7.39647      3.25483      7.49840        -0.167804     -0.100381     -0.000000
C      4.88133      9.02297      7.49840         0.167804      0.100381      0.000000
C     11.54405      0.73375      7.49840        -0.184147      0.184147      0.000000
C      0.73375     11.54405      7.49840         0.184147     -0.184147     -0.000000
C     11.54405     11.54405      7.49840        -0.184147     -0.184147     -0.000000
C      0.73375      0.73375      7.49840         0.184147      0.184147     -0.000000
N      4.60159      7.67621      7.49840         0.062065     -0.062065     -0.000000
N      7.67621      4.60159      7.49840        -0.062065      0.062065     -0.000000
N      4.60159      4.60159      7.49840         0.062065      0.062065      0.000000
N      7.67621      7.67621      7.49840        -0.062065     -0.062065      0.000000
O      8.27798     10.02530      7.49840         0.104900      0.023503      0.000000
O      3.99982      2.25250      7.49840        -0.104900     -0.023503      0.000000
O      2.25250      8.27798      7.49840        -0.023503      0.104900     -0.000000
O     10.02530      3.99982      7.49840         0.023503     -0.104900     -0.000000
O      3.99982     10.02530      7.49840        -0.104900      0.023503     -0.000000
O      8.27798      2.25250      7.49840         0.104900     -0.023503     -0.000000
O     10.02530      8.27798      7.49840         0.023503      0.104900      0.000000
O      2.25250      3.99982      7.49840        -0.023503     -0.104900      0.000000
Ir     10.18129      2.09651      7.49840        -0.007870      0.007870     -0.000000
Ir      2.09651     10.18129      7.49840         0.007870     -0.007870     -0.000000
Ir     10.18129     10.18129      7.49840        -0.007870     -0.007870     -0.000000
Ir      2.09651      2.09651      7.49840         0.007870      0.007870     -0.000000
Ir      6.13890      6.13890      7.49840         0.000000      0.000000      0.000000
