152
# total energy = -1093.13115210 eVH     10.35389      5.87395      7.64558         0.113200     -0.122553      1.298731
H     10.62451     15.10445      7.64558        -0.174959      0.104765      1.418525
H     10.62451      5.87395     13.33282         0.160026     -0.053483     -1.154938
H     10.35389     15.10445     13.33282        -0.025355     -0.061351     -0.938962
H      7.64558     10.35389      5.87395         0.482382      0.016612     -0.064010
H      7.64558     10.62451     15.10445         0.410442      0.003709     -0.004629
H     13.33282     10.62451      5.87395        -0.663621     -0.040624      0.000170
H     13.33282     10.35389     15.10445        -0.419875      0.000872     -0.000076
H      5.87395      7.64558     10.35389        -0.132326      1.318749      0.107925
H     15.10445      7.64558     10.62451        -0.006586      0.500579      0.033196
H      5.87395     13.33282     10.62451        -0.061352     -0.235351      0.033783
H     15.10445     13.33282     10.35389         0.241848     -1.617849      0.108528
H      5.87395     10.35389      7.64558        -0.106123     -0.680667      0.477239
H     15.10445     10.62451      7.64558         0.480993      0.831335      0.111614
H      5.87395     10.62451     13.33282        -0.023152     -0.189163     -0.285804
H     15.10445     10.35389     13.33282        -0.079260      0.215263     -0.105407
H     10.35389      7.64558      5.87395        -0.161012      0.450387      0.040071
H     10.62451      7.64558     15.10445         0.037679      0.538890      0.258433
H     10.62451     13.33282      5.87395         0.009127     -0.458949     -0.176727
H     10.35389     13.33282     15.10445        -0.168678     -0.535099      0.202169
H      7.64558      5.87395     10.35389         0.455418     -0.020925     -0.048080
H      7.64558     15.10445     10.62451         0.302606      0.022390     -0.030436
H     13.33282      5.87395     10.62451        -0.202859     -0.092369     -0.016332
H     13.33282     15.10445     10.35389        -0.512470      0.124605     -0.025774
H     12.45634     12.45634     19.01126         0.265299      0.246640     -0.244101
H     19.01126     19.01126     19.01126        -0.262565     -0.242882     -0.252675
H     19.01126     12.45634     12.45634        -0.263380      0.264517      0.232683
H     12.45634     19.01126     12.45634         0.274002     -0.254774      0.226438
C     10.35284      5.61067      6.59456        -0.210786     -0.282285     -1.757191
C     10.62556     15.36773      6.59456         0.437327      0.112796     -1.878671
C     10.62556      5.61067     14.38384        -0.351100     -0.106015      1.684518
C     10.35284     15.36773     14.38384         0.269430      0.136685      1.659070
C      6.59456     10.35284      5.61067        -0.853073     -0.107601     -0.303832
C      6.59456     10.62556     15.36773        -0.825569     -0.007457      0.101795
C     14.38384     10.62556      5.61067         1.035607      0.036282     -0.230983
C     14.38384     10.35284     15.36773         0.783036     -0.010625      0.184114
C      5.61067      6.59456     10.35284        -0.081755     -1.589193      0.022061
C     15.36773      6.59456     10.62556         0.279537     -0.967327      0.032893
C      5.61067     14.38384     10.62556        -0.391209      0.749908      0.036416
C     15.36773     14.38384     10.35284         0.035347      1.857219     -0.087390
C      5.61067     10.35284      6.59456        -0.708006      0.232263     -1.801023
C     15.36773     10.62556      6.59456         0.768265     -0.218446     -1.992156
C      5.61067     10.62556     14.38384        -0.652868      0.093406      1.653764
C     15.36773     10.35284     14.38384         0.599004     -0.072862      1.435103
C     10.35284      6.59456      5.61067         0.027709     -1.572054     -0.770809
C     10.62556      6.59456     15.36773        -0.036438     -1.849078      0.738778
C     10.62556     14.38384      5.61067         0.101715      1.807650     -0.875265
C     10.35284     14.38384     15.36773         0.040823      1.887424      0.650662
C      6.59456      5.61067     10.35284        -0.794668     -0.808439     -0.024631
C      6.59456     15.36773     10.62556        -1.046727      0.560998      0.074027
C     14.38384      5.61067     10.62556         1.006908     -0.746980      0.089405
C     14.38384     15.36773     10.35284         0.895570      0.957923      0.009174
C     10.40319      3.19606      7.29314        -0.003541      0.531379     -0.540077
C     10.35913      4.25547      6.23373        -0.021524     -0.832073      0.513877
C      0.08601      7.29314      7.29314         0.018426     -0.483899     -0.586974
C      0.13007      6.23373      6.23373         0.040950      0.892957      0.466525
C      0.08601      3.19606      3.19606         0.024294      0.697940      0.445269
C      0.13007      4.25547      4.25547        -0.043627     -0.764370     -0.488635
C     10.40319      7.29314      3.19606        -0.011193     -0.734119      0.494979
C     10.35913      6.23373      4.25547         0.018216      0.582015     -0.508827
C      7.29314     10.40319      3.19606        -0.303045     -0.008705      0.578483
C      6.23373     10.35913      4.25547         0.177203     -0.073174     -0.171652
C      7.29314      0.08601      7.29314        -0.236184     -0.031041     -0.394216
C      6.23373      0.13007      6.23373         0.152586     -0.097281      0.370522
C      3.19606      0.08601      3.19606         0.405943      0.010604      0.434249
C      4.25547      0.13007      4.25547        -0.192192      0.073000     -0.212742
C      3.19606     10.40319      7.29314         0.251373      0.027639     -0.467982
C      4.25547     10.35913      6.23373        -0.167374      0.107145      0.376919
C      3.19606      7.29314     10.40319         0.186178     -0.310646      0.000973
C      4.25547      6.23373     10.35913        -0.576062      0.190764      0.047956
C      7.29314      7.29314      0.08601        -0.587978     -0.468594      0.004928
C      6.23373      6.23373      0.13007         0.122796      0.219489     -0.059230
C      3.19606      3.19606      0.08601         0.559620      0.420777      0.001248
C      4.25547      4.25547      0.13007        -0.057499     -0.095166     -0.031178
C      7.29314      3.19606     10.40319        -0.213932      0.364263      0.001218
C      6.23373      4.25547     10.35913         0.631597     -0.261308      0.024623
O     10.43466      3.58206      8.50569         0.012724      0.229493      0.481664
O     10.54374     17.39634      8.50569        -0.032594     -0.235788      0.514047
O     10.54374      3.58206     12.47271         0.078698      0.156143     -0.378199
O     10.43466     17.39634     12.47271        -0.107463     -0.144271     -0.378428
O      8.50569     10.43466      3.58206         0.392668     -0.020551      0.059587
O      8.50569     10.54374     17.39634         0.453004      0.059389     -0.121255
O     12.47271     10.54374      3.58206        -0.507925     -0.010745      0.114289
O     12.47271     10.43466     17.39634        -0.441574     -0.053793     -0.117252
O      3.58206      8.50569     10.43466         0.169229      0.421809     -0.049786
O     17.39634      8.50569     10.54374        -0.085164      0.559591      0.045929
O      3.58206     12.47271     10.54374         0.048739     -0.515515      0.041766
O     17.39634     12.47271     10.43466        -0.175807     -0.464535     -0.021369
O      3.58206     10.43466      8.50569         0.174998     -0.017454      0.476320
O     17.39634     10.54374      8.50569        -0.123773     -0.012366      0.456978
O      3.58206     10.54374     12.47271         0.170929      0.085425     -0.450452
O     17.39634     10.43466     12.47271        -0.203783     -0.078512     -0.566997
O     10.43466      8.50569      3.58206         0.049887      0.616907      0.262608
O     10.54374      8.50569     17.39634         0.061378      0.505610     -0.216378
O     10.54374     12.47271      3.58206        -0.015162     -0.657328      0.276145
O     10.43466     12.47271     17.39634        -0.030907     -0.530059     -0.225696
O      8.50569      3.58206     10.43466         0.514934      0.149712     -0.030055
O      8.50569     17.39634     10.54374         0.614207     -0.094197      0.047900
O     12.47271      3.58206     10.54374        -0.632664      0.115639      0.028273
O     12.47271     17.39634     10.43466        -0.495624     -0.140517     -0.015960
O     11.90042     11.90042     19.56718        -0.311497     -0.284923      0.270117
O     19.56718     19.56718     19.56718         0.310737      0.270336      0.289887
O     19.56718     11.90042     11.90042         0.316044     -0.313167     -0.235099
O     11.90042     19.56718     11.90042        -0.332540      0.281170     -0.225896
O      9.45224      1.03696      9.45224        -0.039940      0.054785     -0.065998
O      1.03696      9.45224      9.45224         0.028155     -0.082503     -0.060415
O      1.03696      1.03696      1.03696         0.026889      0.048707      0.133287
O      9.45224      9.45224      1.03696        -0.032604     -0.085998      0.133029
Zr     10.48920      2.52580     10.48920        -0.101314     -0.120207     -0.009084
Zr     10.48920     18.45260     10.48920         0.128263      0.191473     -0.105047
Zr     10.48920     10.48920      2.52580         0.003959      0.093689     -0.321896
Zr     10.48920     10.48920     18.45260        -0.023592     -0.013393      0.148668
Zr      2.52580     10.48920     10.48920        -0.029184     -0.025374     -0.056550
Zr     18.45260     10.48920     10.48920         0.113715      0.116133     -0.160191
Pd     12.97805      8.07638      7.67006         0.036693      0.022356     -0.039267
Pd      9.57602     14.59508     11.73725        -0.010621     -0.008728      0.014220
Pd     12.34554     10.90880     10.42813        -0.029809      0.010971     -0.000858
Pd     14.70409     10.04630     11.57626        -0.028376     -0.050953     -0.018963
Pd     10.98672      9.29993      6.17896        -0.017524     -0.008189     -0.014745
Pd      6.94124      8.50494      8.98795         0.024872     -0.017468      0.017399
Ir     10.27019     11.86312     11.75487        -0.000968     -0.011599      0.026006
Ir     12.93852      8.30326     10.34339         0.009123      0.015292     -0.044800
Ir     12.31794     11.00269      7.73665        -0.062646     -0.013734     -0.020726
Ir      9.67350     14.39095      9.14475         0.020928     -0.025053      0.018685
Ir     10.81671      9.19883     11.72839         0.004281      0.001853     -0.046432
Ir      8.71064     10.05946      7.77158        -0.003190     -0.000495     -0.016617
Ir     13.87485     12.54467      9.03121        -0.003525     -0.026637      0.006958
Ir     11.97066     13.58511      7.80586         0.000036     -0.021864     -0.004894
Ir     14.31216      9.92143      9.02486        -0.020177     -0.015274      0.009987
Ir      9.23504      7.44201     10.40486        -0.018083     -0.023856      0.002216
Ir      8.16249     12.71835      7.82615        -0.006347      0.035241      0.026051
Ir      9.18530      7.59073      7.83334        -0.040388      0.020286     -0.016798
Ir     11.85523     13.52938     13.02167         0.043498      0.009339      0.023520
Ir     11.42068      6.70693     11.73111         0.026670     -0.019349      0.014153
Ir     10.25306     11.82315      9.08037        -0.030797     -0.042007     -0.029990
Ir     12.93858      8.34816     12.98309        -0.029498     -0.011604     -0.001120
Ir     10.84265      9.16382      8.99962         0.006784     -0.020066     -0.017341
Ir     11.79284     13.59958     10.40096        -0.019472     -0.014599      0.014537
Ir     13.83595     12.64492     11.77963        -0.006673     -0.012862      0.044634
Ir     12.39499     11.00562     13.08389        -0.008919     -0.004555      0.001849
Ir     10.14162     11.69925      6.49126         0.000129     -0.014151      0.006420
Ir     11.34019      6.59340      9.22465        -0.023453     -0.023509      0.001826
Ir      7.21792      8.35822     11.80635        -0.017303      0.013782      0.004173
Ir      8.18942     12.71396     10.42902        -0.028853     -0.011697      0.018864
Ir     10.92014      9.27058     14.28557        -0.044227      0.029953     -0.049951
Ir      8.10528     12.53843     12.98732        -0.017521      0.029882      0.025825
Ir      6.59365     11.21473      9.09624        -0.041650      0.027487     -0.005139
Ir      8.67983     10.04256     13.07036        -0.012239      0.012937      0.002504
Ir      6.59879     10.90400     11.55633        -0.000447      0.025127     -0.007673
Ir      9.14702      7.46392     13.06415        -0.000405      0.013992     -0.046608
Ir     10.21901     11.65760     14.36330        -0.044711      0.009010     -0.008253
Ir      8.73447     10.06045     10.41182        -0.023797     -0.019132     -0.009780
