152
# total energy = -1005.53205494 eVH     10.35389      5.87395      7.64558         0.159875      0.101777      0.571034
H     10.62451     15.10445      7.64558        -0.119492     -0.147153      0.499471
H     10.62451      5.87395     13.33282         0.577869      0.083517     -0.840030
H     10.35389     15.10445     13.33282         0.024715     -0.157419     -0.402095
H      7.64558     10.35389      5.87395         0.355241      0.038711      0.164717
H      7.64558     10.62451     15.10445         0.889817      0.534290      0.003690
H     13.33282     10.62451      5.87395        -0.437705      0.350399      0.110378
H     13.33282     10.35389     15.10445        -0.850313     -0.072284      0.007186
H      5.87395      7.64558     10.35389         0.318372      1.208165      0.032308
H     15.10445      7.64558     10.62451        -0.107291      0.488185      0.294663
H      5.87395     13.33282     10.62451         0.184592     -0.614652      0.045742
H     15.10445     13.33282     10.35389        -0.079959     -0.949099     -0.201195
H      5.87395     10.35389      7.64558         0.206828      0.052108      0.440883
H     15.10445     10.62451      7.64558        -0.140972      0.516582      0.772927
H      5.87395     10.62451     13.33282         0.054687      0.425397     -1.032119
H     15.10445     10.35389     13.33282        -0.075138     -0.032540     -0.643537
H     10.35389      7.64558      5.87395         0.328910      1.169207      0.064084
H     10.62451      7.64558     15.10445         0.684590      0.681748     -0.217280
H     10.62451     13.33282      5.87395        -0.398421     -0.811670      0.269842
H     10.35389     13.33282     15.10445        -0.101527     -0.470462     -0.289378
H      7.64558      5.87395     10.35389         0.836040      0.056988     -0.211772
H      7.64558     15.10445     10.62451         0.803957     -0.179199      0.031659
H     13.33282      5.87395     10.62451        -0.715827      0.167413      0.513905
H     13.33282     15.10445     10.35389        -0.376817     -0.119401     -0.092325
H     12.45634     12.45634     19.01126         0.246315      0.271648     -0.233089
H     19.01126     19.01126     19.01126        -0.274539     -0.249768     -0.239733
H     19.01126     12.45634     12.45634        -0.277584      0.262822      0.219658
H     12.45634     19.01126     12.45634         0.236498     -0.262943      0.273106
C     10.35284      5.61067      6.59456        -0.319504     -0.747822     -0.105461
C     10.62556     15.36773      6.59456         0.061208      0.332215     -0.264798
C     10.62556      5.61067     14.38384        -0.148542     -0.513005      0.275529
C     10.35284     15.36773     14.38384         0.018093      0.190708      0.352647
C      6.59456     10.35284      5.61067        -0.394871      0.011979     -0.250782
C      6.59456     10.62556     15.36773        -0.649076      0.085642      0.644455
C     14.38384     10.62556      5.61067        -0.258171     -0.463999     -0.678629
C     14.38384     10.35284     15.36773         1.047806     -0.088327      0.177679
C      5.61067      6.59456     10.35284        -0.737769     -0.256217     -0.344349
C     15.36773      6.59456     10.62556         0.535033      0.014800     -0.352901
C      5.61067     14.38384     10.62556        -0.226857      0.669273     -0.017384
C     15.36773     14.38384     10.35284         0.276084      0.954790      0.026439
C      5.61067     10.35284      6.59456        -0.298271      0.004646     -0.771107
C     15.36773     10.62556      6.59456         0.495417     -0.263879      0.206744
C      5.61067     10.62556     14.38384        -0.683968     -0.016536      0.515360
C     15.36773     10.35284     14.38384         0.428486     -0.034489      1.000596
C     10.35284      6.59456      5.61067        -0.137363     -0.768001     -0.567952
C     10.62556      6.59456     15.36773        -0.069845     -0.442015      0.582680
C     10.62556     14.38384      5.61067         0.198872      1.157420     -0.352019
C     10.35284     14.38384     15.36773        -0.002940      0.834640      0.386235
C      6.59456      5.61067     10.35284         0.125032     -1.064972      0.263930
C      6.59456     15.36773     10.62556        -0.977227      0.228965      0.079281
C     14.38384      5.61067     10.62556         0.305256     -0.559172     -0.366224
C     14.38384     15.36773     10.35284         0.142547      0.367352     -0.078611
C     10.40319      3.19606      7.29314         0.004456      0.852058     -0.450425
C     10.35913      4.25547      6.23373         0.064473     -0.548562      0.105802
C      0.08601      7.29314      7.29314        -0.041415     -0.815514     -0.238559
C      0.13007      6.23373      6.23373        -0.044536      0.202723      0.457704
C      0.08601      3.19606      3.19606         0.020188      1.414747      0.266265
C      0.13007      4.25547      4.25547         0.015591     -0.620466     -0.264750
C     10.40319      7.29314      3.19606         0.002741     -0.334268      0.266540
C     10.35913      6.23373      4.25547         0.030589      0.023903     -0.732697
C      7.29314     10.40319      3.19606        -0.259976      0.017715      0.536286
C      6.23373     10.35913      4.25547         0.142150      0.043267     -0.059590
C      7.29314      0.08601      7.29314        -0.827795     -0.076424     -0.308364
C      6.23373      0.13007      6.23373         0.810369     -0.172199      0.416870
C      3.19606      0.08601      3.19606         0.925395     -0.025171      0.572734
C      4.25547      0.13007      4.25547        -0.540264     -0.091454     -0.645546
C      3.19606     10.40319      7.29314         0.545305     -0.009752     -0.760305
C      4.25547     10.35913      6.23373        -0.265864      0.065256      0.215522
C      3.19606      7.29314     10.40319         0.295874     -1.305764      0.026461
C      4.25547      6.23373     10.35913        -1.053157      0.022583      0.116159
C      7.29314      7.29314      0.08601        -0.438549     -0.425120     -0.014083
C      6.23373      6.23373      0.13007         0.542694      0.235680      0.015381
C      3.19606      3.19606      0.08601         0.450326      0.351529     -0.034162
C      4.25547      4.25547      0.13007        -0.131432     -0.579597     -0.046473
C      7.29314      3.19606     10.40319        -0.386845      0.445891      0.055878
C      6.23373      4.25547     10.35913         0.262370     -0.741033      0.137864
O     10.43466      3.58206      8.50569        -0.014335      0.053959      0.448458
O     10.54374     17.39634      8.50569         0.064197     -0.080238      0.347755
O     10.54374      3.58206     12.47271         0.026201     -0.120598     -0.144076
O     10.43466     17.39634     12.47271        -0.027924     -0.167432     -0.519236
O      8.50569     10.43466      3.58206         0.277514     -0.022078      0.011694
O      8.50569     10.54374     17.39634         0.782127     -0.042924     -0.176701
O     12.47271     10.54374      3.58206        -0.804543      0.097555      0.085900
O     12.47271     10.43466     17.39634        -0.477956      0.033870     -0.079156
O      3.58206      8.50569     10.43466         0.156928      1.082329     -0.034209
O     17.39634      8.50569     10.54374        -0.158350      0.586463      0.067879
O      3.58206     12.47271     10.54374         0.103746     -0.437781      0.037113
O     17.39634     12.47271     10.43466        -0.145238     -0.554902     -0.031133
O      3.58206     10.43466      8.50569         0.068348     -0.090239      0.607855
O     17.39634     10.54374      8.50569        -0.035144      0.089261      0.425554
O      3.58206     10.54374     12.47271         0.014020      0.035254     -0.491049
O     17.39634     10.43466     12.47271        -0.230301     -0.046090     -0.647630
O     10.43466      8.50569      3.58206        -0.038467      0.451600      0.139532
O     10.54374      8.50569     17.39634        -0.057989      0.700815     -0.217498
O     10.54374     12.47271      3.58206         0.035970     -0.998755      0.107607
O     10.43466     12.47271     17.39634         0.059142     -0.801679     -0.213244
O      8.50569      3.58206     10.43466         0.576589      0.152751     -0.054297
O      8.50569     17.39634     10.54374         0.529486     -0.180394     -0.000179
O     12.47271      3.58206     10.54374        -0.603648      0.193592      0.003173
O     12.47271     17.39634     10.43466        -0.251223      0.071241     -0.044434
O     11.90042     11.90042     19.56718        -0.262951     -0.308835      0.229307
O     19.56718     19.56718     19.56718         0.325556      0.294027      0.248883
O     19.56718     11.90042     11.90042         0.317034     -0.261315     -0.236058
O     11.90042     19.56718     11.90042        -0.238403      0.301267     -0.329851
O      9.45224      1.03696      9.45224         0.002670      0.068588     -0.130475
O      1.03696      9.45224      9.45224         0.085474     -0.073541     -0.168222
O      1.03696      1.03696      1.03696         0.111974      0.167436      0.027994
O      9.45224      9.45224      1.03696        -0.093835     -0.112922      0.012372
Zr     10.48920      2.52580     10.48920        -0.094220     -0.219321     -0.019751
Zr     10.48920     18.45260     10.48920        -0.098526      0.185570      0.179574
Zr     10.48920     10.48920      2.52580        -0.102701     -0.440878     -0.207613
Zr     10.48920     10.48920     18.45260        -0.156494      0.022854      0.429797
Zr      2.52580     10.48920     10.48920        -0.340796      0.285994      0.294817
Zr     18.45260     10.48920     10.48920         0.162543      0.014066     -0.108060
Pd     13.62310      8.95538      9.12564         0.003475     -0.005057      0.019034
Pd      5.70488      9.72739      9.99084         0.000751      0.020329      0.023117
Pd      6.84922     11.41587     11.71249        -0.022262      0.081226     -0.005405
Pd     12.18380     13.11861      7.33814         0.005540     -0.011168     -0.004981
Pd     12.08554      7.88459      7.18270        -0.010923     -0.010162      0.029803
Pd      8.29186      7.05679      6.55582         0.000679     -0.003203      0.007110
Pd     10.87637     11.29157      5.58052         0.011100     -0.008114     -0.002078
Pd     14.63370      8.53285      6.69204        -0.011671     -0.000757      0.012679
Pd      9.63933     11.80563      8.00494         0.009260     -0.004034     -0.006104
Pd      6.70719      6.78234     12.29961         0.026909     -0.001931     -0.011151
Pd      6.38759      7.56917      8.27567        -0.005744      0.020704     -0.003976
Pd      6.97478      8.84151     13.90432        -0.039707     -0.055564      0.057209
Pd     11.63654      6.54776      9.48167        -0.025599     -0.005356      0.041388
Pd      9.74272      9.29486      6.89810        -0.005465     -0.000387      0.005165
Pd      9.02655     13.96846      9.41588        -0.005682     -0.001613     -0.011661
Pd     10.00266      7.08577     11.53499        -0.064821      0.044269      0.036438
Pd     10.52759      8.96678      9.54963        -0.005714      0.004604      0.011370
Pd      9.35773     11.27236     10.60713        -0.008870      0.023383     -0.003662
Pd      8.89175      6.99355      9.12202        -0.010980      0.009426      0.011699
Pd      8.77124      6.90357     13.88299        -0.034080     -0.062883      0.063928
Pd      8.03350      8.93672     11.42373        -0.043113      0.069693      0.050120
Pd     11.95288     10.52423      7.83670         0.006790     -0.011999     -0.001103
Pd      7.14004     12.05642      9.14735        -0.002811     -0.000047     -0.022912
Pd      8.02480      9.59011      8.80544         0.004910     -0.001661      0.021631
Pd     14.17350      6.50057      8.44709        -0.023947     -0.007603      0.006286
Pd     12.54245      8.25381     11.46550        -0.017364     -0.001709      0.010513
Pd      8.82037     11.34880     13.42959        -0.019380      0.021279     -0.005763
Pd     13.89592     11.93032      9.04044         0.004489     -0.000943     -0.002899
Pd     12.86572     10.57081     13.09015         0.006361      0.003336      0.000984
Pd     14.71747     10.31186     11.13565         0.010668      0.014401      0.002712
Pd     12.05014     10.73512     10.59216         0.005031      0.003452     -0.003889
Pd     11.45099     13.15516      9.86920        -0.001755      0.000066     -0.006850
Pd     13.56673     12.81461     11.67293        -0.000933      0.004670     -0.005093
Pd     11.03603     12.53618     12.44464         0.003436     -0.004433     -0.000075
Pd     11.09525     11.35803     14.88014        -0.014999     -0.014660     -0.001515
Pd     10.47048      9.51177     12.55577        -0.003440      0.041144     -0.020270
Pd      9.43866      9.30162     14.99247        -0.012777     -0.017560     -0.055223
Pd      8.62770     13.52937     11.99412         0.021320      0.033898      0.002461
