152
# total energy = -1024.28083104 eVH     10.35389      5.87395      7.64558         0.491324      0.043192      0.748461
H     10.62451     15.10445      7.64558         0.012967     -0.184232      0.577951
H     10.62451      5.87395     13.33282         0.118196      0.158204     -0.603235
H     10.35389     15.10445     13.33282        -0.405847     -0.059170     -0.747646
H      7.64558     10.35389      5.87395         0.337231      0.002645      0.178695
H      7.64558     10.62451     15.10445         0.833429     -0.324045     -0.034003
H     13.33282     10.62451      5.87395        -0.759456     -0.013315      0.159609
H     13.33282     10.35389     15.10445        -0.886697     -0.399601      0.206565
H      5.87395      7.64558     10.35389         0.210810      0.592402     -0.011697
H     15.10445      7.64558     10.62451        -0.143158      0.401310     -0.044516
H      5.87395     13.33282     10.62451         0.164997     -0.509514     -0.102717
H     15.10445     13.33282     10.35389        -0.108961     -1.139797     -0.014040
H      5.87395     10.35389      7.64558         0.136928      0.119506      0.486162
H     15.10445     10.62451      7.64558         0.052295      0.094600      1.054207
H      5.87395     10.62451     13.33282         0.115762     -0.028872     -0.422113
H     15.10445     10.35389     13.33282        -0.101278     -0.157045     -0.608818
H     10.35389      7.64558      5.87395         0.060199      0.956493      0.238830
H     10.62451      7.64558     15.10445         0.013622      0.281954     -0.179156
H     10.62451     13.33282      5.87395        -0.084393     -0.469963      0.321629
H     10.35389     13.33282     15.10445        -0.436775     -0.659704     -0.031451
H      7.64558      5.87395     10.35389         0.474505      0.120627      0.053592
H      7.64558     15.10445     10.62451         0.879690     -0.261996     -0.015972
H     13.33282      5.87395     10.62451        -0.564359      0.143156     -0.080899
H     13.33282     15.10445     10.35389        -0.623875     -0.065784      0.208318
H     12.45634     12.45634     19.01126         0.239556      0.275037     -0.235057
H     19.01126     19.01126     19.01126        -0.253265     -0.246029     -0.242809
H     19.01126     12.45634     12.45634        -0.260764      0.269292      0.221845
H     12.45634     19.01126     12.45634         0.229609     -0.263516      0.244252
C     10.35284      5.61067      6.59456        -0.178123     -0.624477      0.060315
C     10.62556     15.36773      6.59456        -0.018430      0.393528     -0.752311
C     10.62556      5.61067     14.38384        -0.021190     -0.078083      0.730354
C     10.35284     15.36773     14.38384         0.151619      0.718553      0.159878
C      6.59456     10.35284      5.61067        -0.380781     -0.026285     -0.265450
C      6.59456     10.62556     15.36773        -1.009146      0.332411      0.405892
C     14.38384     10.62556      5.61067         0.429305      0.298297     -0.602749
C     14.38384     10.35284     15.36773         0.968037     -0.009335      0.370399
C      5.61067      6.59456     10.35284        -0.383944     -0.499389      0.222652
C     15.36773      6.59456     10.62556         0.195295     -0.526646      0.029841
C      5.61067     14.38384     10.62556        -0.168254      0.551816      0.008905
C     15.36773     14.38384     10.35284         0.336361      0.012840     -0.129636
C      5.61067     10.35284      6.59456        -0.305522     -0.058465     -0.899324
C     15.36773     10.62556      6.59456         0.737942     -0.289488     -1.087617
C      5.61067     10.62556     14.38384        -0.476782      0.003120      0.305336
C     15.36773     10.35284     14.38384         0.670301     -0.113726      1.129280
C     10.35284      6.59456      5.61067        -0.238622     -0.597137     -0.844148
C     10.62556      6.59456     15.36773         0.049829     -0.295571      0.087302
C     10.62556     14.38384      5.61067         0.125410      1.243656     -0.443073
C     10.35284     14.38384     15.36773         0.204295      0.121227      0.686535
C      6.59456      5.61067     10.35284        -0.371423     -0.727477      0.064853
C      6.59456     15.36773     10.62556        -1.221343      0.279264      0.071705
C     14.38384      5.61067     10.62556         0.886555     -0.274524      0.026142
C     14.38384     15.36773     10.35284        -0.491587      0.735064     -0.353817
C     10.40319      3.19606      7.29314        -0.018197      0.835023     -0.393395
C     10.35913      4.25547      6.23373         0.033000     -0.466193      0.586912
C      0.08601      7.29314      7.29314        -0.017957     -0.492808     -0.360580
C      0.13007      6.23373      6.23373        -0.019083      0.017463      0.096011
C      0.08601      3.19606      3.19606        -0.004997      1.189400      0.184904
C      0.13007      4.25547      4.25547        -0.051971     -0.218108     -0.235554
C     10.40319      7.29314      3.19606        -0.003543     -1.021417      0.411006
C     10.35913      6.23373      4.25547         0.024509      0.465887     -0.648756
C      7.29314     10.40319      3.19606        -0.394445      0.044082      0.809322
C      6.23373     10.35913      4.25547         0.235900      0.088554     -0.117200
C      7.29314      0.08601      7.29314        -0.581860     -0.026063     -0.259251
C      6.23373      0.13007      6.23373         0.387563     -0.066346      0.425300
C      3.19606      0.08601      3.19606         0.854193     -0.017850      0.346901
C      4.25547      0.13007      4.25547        -0.104865     -0.062040     -0.473834
C      3.19606     10.40319      7.29314         0.482295     -0.000337     -0.755808
C      4.25547     10.35913      6.23373        -0.250372      0.109775      0.248343
C      3.19606      7.29314     10.40319         0.493291     -1.372960     -0.042793
C      4.25547      6.23373     10.35913        -0.385240      0.800999      0.037372
C      7.29314      7.29314      0.08601        -0.432715     -0.230558     -0.010859
C      6.23373      6.23373      0.13007         0.167599      0.143847     -0.014045
C      3.19606      3.19606      0.08601         0.248645      0.254299     -0.020642
C      4.25547      4.25547      0.13007        -0.097276     -0.048123      0.017610
C      7.29314      3.19606     10.40319        -0.358160      0.685038      0.013906
C      6.23373      4.25547     10.35913         1.096024      0.057034      0.003360
O     10.43466      3.58206      8.50569        -0.029304      0.056873      0.451646
O     10.54374     17.39634      8.50569        -0.005767     -0.087678      0.440051
O     10.54374      3.58206     12.47271         0.046463     -0.082961     -0.149576
O     10.43466     17.39634     12.47271        -0.052479     -0.051395     -0.488961
O      8.50569     10.43466      3.58206         0.333701     -0.028847     -0.039759
O      8.50569     10.54374     17.39634         0.677339      0.028112     -0.167223
O     12.47271     10.54374      3.58206        -0.720395     -0.034050      0.149222
O     12.47271     10.43466     17.39634        -0.452879     -0.027430     -0.047155
O      3.58206      8.50569     10.43466         0.139111      1.102746     -0.000820
O     17.39634      8.50569     10.54374        -0.077806      0.407486      0.066587
O      3.58206     12.47271     10.54374         0.070290     -0.415290      0.040148
O     17.39634     12.47271     10.43466        -0.157683     -0.702321      0.004892
O      3.58206     10.43466      8.50569         0.025884     -0.073956      0.646971
O     17.39634     10.54374      8.50569        -0.067735      0.043441      0.332288
O      3.58206     10.54374     12.47271        -0.001960      0.024424     -0.309604
O     17.39634     10.43466     12.47271        -0.234605      0.018444     -0.739835
O     10.43466      8.50569      3.58206         0.108648      0.843476      0.201577
O     10.54374      8.50569     17.39634         0.036269      0.673561     -0.159695
O     10.54374     12.47271      3.58206        -0.023513     -1.011843      0.221462
O     10.43466     12.47271     17.39634        -0.028397     -0.890543     -0.194498
O      8.50569      3.58206     10.43466         0.518835      0.099829     -0.019908
O      8.50569     17.39634     10.54374         0.547495     -0.214407     -0.019115
O     12.47271      3.58206     10.54374        -0.469346      0.155757      0.056570
O     12.47271     17.39634     10.43466        -0.377255      0.051040     -0.009262
O     11.90042     11.90042     19.56718        -0.276781     -0.326997      0.261826
O     19.56718     19.56718     19.56718         0.282323      0.282679      0.287447
O     19.56718     11.90042     11.90042         0.288984     -0.306474     -0.199430
O     11.90042     19.56718     11.90042        -0.269733      0.279032     -0.250092
O      9.45224      1.03696      9.45224        -0.086967      0.052644     -0.054186
O      1.03696      9.45224      9.45224         0.035970     -0.174696     -0.108475
O      1.03696      1.03696      1.03696         0.001347      0.105300      0.216368
O      9.45224      9.45224      1.03696        -0.056564     -0.084439      0.136996
Zr     10.48920      2.52580     10.48920        -0.019123     -0.109936     -0.172353
Zr     10.48920     18.45260     10.48920         0.024417      0.240376     -0.020912
Zr     10.48920     10.48920      2.52580        -0.065347     -0.169859     -0.552746
Zr     10.48920     10.48920     18.45260        -0.036541      0.046396      0.467730
Zr      2.52580     10.48920     10.48920        -0.363276      0.329935      0.099936
Zr     18.45260     10.48920     10.48920         0.202454      0.039152     -0.252558
Pd      8.59225      9.92016     13.23381        -0.027475     -0.059253     -0.037279
Pd     10.53231      9.50228     10.30136        -0.022345     -0.037744      0.022401
Pd     13.41214      8.73582     12.51542        -0.070842     -0.009958     -0.048681
Pd     10.44956     10.63290     15.09370         0.045817      0.004853      0.052489
Pd     12.99566     11.35609     13.47729        -0.005605     -0.044293      0.014874
Pd     14.95755     10.73302     11.29866        -0.007698     -0.000628     -0.015901
Pd      6.80552      7.90067     12.57179         0.042654     -0.025340     -0.053829
Pd      9.23889      7.21962      9.58363         0.020006     -0.000220      0.036411
Pd      9.47954      7.53261     12.32140        -0.036377      0.022690      0.016544
Pd     11.75434      7.21215     11.00802        -0.001614     -0.003796     -0.028175
Pd     11.60918      7.85982      8.38329         0.005541      0.010381      0.009530
Pd      7.17797     11.72152     11.63574        -0.013115      0.028913     -0.018200
Pd      9.22773     14.37655      9.38837         0.002085      0.012397      0.005059
Pd      8.21117     12.41011     14.21731        -0.042199     -0.010373     -0.021750
Pd     14.14809     14.19941      8.33363         0.010853      0.009070      0.033650
Pd     11.65430     13.36232      8.84579         0.016296     -0.009279     -0.022020
Pd     14.07480     11.62585      8.94214         0.025361      0.017207      0.008262
Pd      8.76864     13.91131     12.11954         0.021930      0.006524      0.006377
Pd     12.20262     13.89876     13.99314         0.023935      0.036229      0.006359
Pd     11.42190     14.09492     11.38421        -0.058858      0.012530      0.021887
Pd     14.07294     13.43041     12.14013        -0.048540     -0.015340     -0.034917
Pd     12.34358     11.61405     10.91283        -0.012356     -0.011851     -0.020808
Pd     12.83465     12.62134      6.61178         0.049274     -0.007447      0.027455
Pd     13.89239      8.90668      7.60820         0.033543     -0.015926      0.001407
Pd      6.96696      8.43261      8.52298        -0.039677      0.016797     -0.058486
Pd      5.55867     10.00822     10.23800        -0.057157      0.024427     -0.007820
Pd      9.34927      9.47679      7.60128         0.030803      0.047171     -0.026138
Pd      8.50912      6.99566      6.97455        -0.032927     -0.031993     -0.007145
Pd      9.68877     11.93652     10.56230         0.008464      0.040821      0.067839
Pd     11.70606     10.66782      8.14702         0.004618      0.007361     -0.068590
Pd     11.67786      9.01727      5.95190         0.031737     -0.007713      0.014538
Pd     10.40806     11.36381      5.82822         0.012659     -0.028671     -0.041114
Ir     11.06991      9.61677     12.77014         0.009851      0.019256     -0.053138
Ir     13.17438      9.31281     10.01630         0.008182     -0.001791     -0.013966
Ir     10.53822     12.08001     12.93330        -0.070011      0.024038     -0.032665
Ir      7.69378     10.99246      9.14732         0.042470      0.072461     -0.069753
Ir      9.44473     12.15169      8.03212         0.015293     -0.064425     -0.027950
Ir      8.05554      9.23552     10.81645         0.084917     -0.028273      0.082208
