152
# total energy = -1004.24365369 eVH     10.35389      5.87395      7.64558        -0.226984      0.246272      0.628563
H     10.62451     15.10445      7.64558        -0.247203     -0.141637      0.695083
H     10.62451      5.87395     13.33282         0.474450      0.034180     -0.964336
H     10.35389     15.10445     13.33282         0.063757     -0.194081     -0.535521
H      7.64558     10.35389      5.87395         0.424739      0.068232      0.112204
H      7.64558     10.62451     15.10445         0.780385      0.586077     -0.029890
H     13.33282     10.62451      5.87395        -0.446634     -0.041517      0.289982
H     13.33282     10.35389     15.10445        -0.703495     -0.165110     -0.014031
H      5.87395      7.64558     10.35389         0.085098      1.869228      0.204498
H     15.10445      7.64558     10.62451        -0.098408      0.523147      0.139885
H      5.87395     13.33282     10.62451         0.210474     -0.738371      0.042949
H     15.10445     13.33282     10.35389         0.229350     -1.469542     -0.357828
H      5.87395     10.35389      7.64558         0.080607      0.070368      0.599005
H     15.10445     10.62451      7.64558        -0.192669      0.821664      1.335018
H      5.87395     10.62451     13.33282        -0.058271      0.439589     -1.312707
H     15.10445     10.35389     13.33282         0.129215     -0.146571     -0.749523
H     10.35389      7.64558      5.87395         0.232914      1.384342      0.165974
H     10.62451      7.64558     15.10445         0.554030      0.828456     -0.074570
H     10.62451     13.33282      5.87395        -0.563119     -0.812115      0.181067
H     10.35389     13.33282     15.10445        -0.142466     -0.531572     -0.298417
H      7.64558      5.87395     10.35389         1.108294     -0.289312     -0.123245
H      7.64558     15.10445     10.62451         0.736156     -0.209876     -0.029234
H     13.33282      5.87395     10.62451        -0.614225      0.115800      0.622676
H     13.33282     15.10445     10.35389        -0.377876     -0.036206     -0.132036
H     12.45634     12.45634     19.01126         0.273982      0.243001     -0.234634
H     19.01126     19.01126     19.01126        -0.267401     -0.272469     -0.213785
H     19.01126     12.45634     12.45634        -0.272976      0.253362      0.233315
H     12.45634     19.01126     12.45634         0.255036     -0.281457      0.228428
C     10.35284      5.61067      6.59456        -0.151520     -0.832697     -0.602684
C     10.62556     15.36773      6.59456         0.082205      0.357870     -0.282052
C     10.62556      5.61067     14.38384        -0.080269     -0.587206      0.643095
C     10.35284     15.36773     14.38384        -0.016323      0.239508      0.537629
C      6.59456     10.35284      5.61067        -0.686516      0.090357     -0.486737
C      6.59456     10.62556     15.36773        -0.988127      0.222950      0.733977
C     14.38384     10.62556      5.61067         0.851995      0.021875     -0.928970
C     14.38384     10.35284     15.36773         0.942711     -0.093665      0.472173
C      5.61067      6.59456     10.35284        -0.853885     -1.031464     -0.459719
C     15.36773      6.59456     10.62556         0.710172      0.013064     -0.234851
C      5.61067     14.38384     10.62556        -0.209621      0.863278     -0.015288
C     15.36773     14.38384     10.35284         0.294014      1.467289     -0.045121
C      5.61067     10.35284      6.59456        -0.291031      0.008506     -0.764064
C     15.36773     10.62556      6.59456         0.385045     -0.363093     -0.907135
C      5.61067     10.62556     14.38384        -0.353009     -0.007406      1.110155
C     15.36773     10.35284     14.38384         0.342128     -0.043198      0.870117
C     10.35284      6.59456      5.61067        -0.026105     -1.044277     -0.344092
C     10.62556      6.59456     15.36773         0.052941     -0.737215      0.566665
C     10.62556     14.38384      5.61067         0.105776      0.966881     -0.427217
C     10.35284     14.38384     15.36773        -0.025618      0.804259      0.404133
C      6.59456      5.61067     10.35284        -0.709564     -1.243545      0.153033
C      6.59456     15.36773     10.62556        -0.813567      0.143367      0.092040
C     14.38384      5.61067     10.62556        -0.059833     -0.507453     -0.391609
C     14.38384     15.36773     10.35284         0.085680      0.644785     -0.073866
C     10.40319      3.19606      7.29314         0.008462      0.648632     -0.837774
C     10.35913      4.25547      6.23373         0.013900     -0.531903      0.114315
C      0.08601      7.29314      7.29314        -0.025303     -1.024122     -0.262202
C      0.13007      6.23373      6.23373        -0.051305      0.395992      0.427661
C      0.08601      3.19606      3.19606         0.040026      1.140904      0.217220
C      0.13007      4.25547      4.25547        -0.003458     -0.419309     -0.424046
C     10.40319      7.29314      3.19606        -0.010041     -0.600803      0.213422
C     10.35913      6.23373      4.25547        -0.020298      0.127950     -0.701840
C      7.29314     10.40319      3.19606        -0.420422      0.018341      0.248496
C      6.23373     10.35913      4.25547         0.206509      0.061827     -0.093508
C      7.29314      0.08601      7.29314        -1.186830     -0.079210     -0.370053
C      6.23373      0.13007      6.23373         0.651700     -0.193996      0.358786
C      3.19606      0.08601      3.19606         1.198325     -0.015296      0.290540
C      4.25547      0.13007      4.25547        -0.576833     -0.153793     -0.234234
C      3.19606     10.40319      7.29314         0.548462      0.031087     -0.257812
C      4.25547     10.35913      6.23373        -0.214854      0.071050      0.193718
C      3.19606      7.29314     10.40319         0.296149     -0.560583      0.047335
C      4.25547      6.23373     10.35913        -1.010770      0.005414      0.163717
C      7.29314      7.29314      0.08601        -0.484396     -0.432377     -0.022419
C      6.23373      6.23373      0.13007         0.468771      0.306013      0.058693
C      3.19606      3.19606      0.08601         0.654458      0.452420     -0.022583
C      4.25547      4.25547      0.13007        -0.138530     -0.777472     -0.114573
C      7.29314      3.19606     10.40319        -0.393204      0.455138      0.052529
C      6.23373      4.25547     10.35913         0.612583     -0.707128      0.195857
O     10.43466      3.58206      8.50569         0.062655      0.208109      0.705114
O     10.54374     17.39634      8.50569         0.050578     -0.031729      0.304941
O     10.54374      3.58206     12.47271         0.005498     -0.039818     -0.232863
O     10.43466     17.39634     12.47271        -0.034584     -0.102562     -0.385699
O      8.50569     10.43466      3.58206         0.568053     -0.046623      0.145097
O      8.50569     10.54374     17.39634         0.869829     -0.084074     -0.164062
O     12.47271     10.54374      3.58206        -0.889788      0.143752      0.139299
O     12.47271     10.43466     17.39634        -0.616019      0.037402     -0.179432
O      3.58206      8.50569     10.43466         0.175614      0.659644     -0.032650
O     17.39634      8.50569     10.54374        -0.137165      0.623076      0.021722
O      3.58206     12.47271     10.54374         0.101654     -0.548325      0.051369
O     17.39634     12.47271     10.43466        -0.175272     -0.560654     -0.056938
O      3.58206     10.43466      8.50569         0.087942     -0.040065      0.387739
O     17.39634     10.54374      8.50569         0.053223      0.103738      0.326118
O      3.58206     10.54374     12.47271        -0.027650      0.030471     -0.235264
O     17.39634     10.43466     12.47271        -0.114765     -0.028617     -0.423399
O     10.43466      8.50569      3.58206        -0.042757      0.642596      0.181840
O     10.54374      8.50569     17.39634        -0.092570      0.810891     -0.164509
O     10.54374     12.47271      3.58206         0.119356     -0.933773      0.176303
O     10.43466     12.47271     17.39634         0.017655     -0.492784     -0.061544
O      8.50569      3.58206     10.43466         0.573981      0.151856     -0.052062
O      8.50569     17.39634     10.54374         0.599082     -0.167458      0.013944
O     12.47271      3.58206     10.54374        -0.748181      0.125998      0.012775
O     12.47271     17.39634     10.43466        -0.505493     -0.126713     -0.031478
O     11.90042     11.90042     19.56718        -0.325658     -0.263337      0.243640
O     19.56718     19.56718     19.56718         0.298843      0.324465      0.206164
O     19.56718     11.90042     11.90042         0.345354     -0.280373     -0.252612
O     11.90042     19.56718     11.90042        -0.280881      0.351213     -0.225559
O      9.45224      1.03696      9.45224        -0.030576      0.105938     -0.130254
O      1.03696      9.45224      9.45224         0.063739     -0.023622     -0.116188
O      1.03696      1.03696      1.03696         0.064143      0.097480      0.097907
O      9.45224      9.45224      1.03696        -0.035901     -0.026927      0.090947
Zr     10.48920      2.52580     10.48920        -0.096364     -0.254873      0.189197
Zr     10.48920     18.45260     10.48920         0.020497      0.056546      0.091144
Zr     10.48920     10.48920      2.52580        -0.318365     -0.241355     -0.392230
Zr     10.48920     10.48920     18.45260         0.181339     -0.010992      0.366170
Zr      2.52580     10.48920     10.48920        -0.135254     -0.049231     -0.066777
Zr     18.45260     10.48920     10.48920         0.100814     -0.053909      0.140071
Pd     12.68315      8.24544      9.71749        -0.008237      0.033362     -0.001504
Pd      6.72536      9.62305     10.48960        -0.012555      0.009475      0.014547
Pd      6.92537     11.78647     11.93784        -0.000089     -0.010395     -0.027436
Pd     12.23758     13.46294      7.29012        -0.009849      0.016705     -0.039598
Pd     12.06886      7.88933      7.09626         0.023305      0.014234     -0.001484
Pd      8.51692      7.34596      6.95069         0.007242     -0.009594      0.004547
Pd     11.51447     11.44333      5.67529        -0.003357      0.001938      0.001380
Pd     14.46618      8.85170      7.80198         0.016506     -0.008264      0.005277
Pd      9.87008     11.78020      7.85983        -0.009768      0.012630      0.022720
Pd      7.07473      7.18510     11.97539         0.017493     -0.007955     -0.007558
Pd      6.45657      7.69037      8.51465         0.008154     -0.023863     -0.032549
Pd      7.34909      9.27344     13.45508        -0.027175      0.004037      0.013665
Pd     11.37820      6.02406      9.21834         0.014493      0.041177      0.018881
Pd      9.89411      9.56757      6.32412         0.018153      0.020693     -0.004586
Pd      9.13545     13.95052      9.28690         0.002766     -0.029853      0.010484
Pd     10.92266      7.20458     11.51778         0.001448     -0.019061      0.030018
Pd     10.32126      9.06007      8.96368         0.026633      0.011740      0.025068
Pd      9.27135     11.51182     10.44866         0.028120     -0.030766      0.024984
Pd      8.89453      7.07546      9.64320         0.000555     -0.010563     -0.031546
Pd      9.07761      7.28254     13.64496        -0.026112     -0.009213     -0.023311
Pd      9.09078      9.09161     11.43605        -0.007038     -0.022675     -0.012064
Pd     12.32281     10.58595      8.09647        -0.028089      0.023010     -0.005382
Pd      7.02323     12.07958      9.21261         0.020906      0.010779     -0.006743
Pd      8.02805      9.83110      8.21940         0.014322     -0.020992     -0.011934
Pd     14.00874      6.31427      8.47698         0.010336     -0.000420      0.013871
Pd     13.34509      8.30925     12.23321        -0.036271      0.023147      0.005359
Pd      9.19011     11.30343     13.19774        -0.005384      0.046236      0.011565
Pd     14.07987     12.41873      8.81419        -0.013034     -0.007135      0.018464
Pd     13.15787     10.88484     12.97728         0.003672      0.020287      0.001173
Pd     14.26957     10.27320     10.40695         0.001092      0.016279      0.024578
Pd     11.62841     10.42423     10.86757         0.051080      0.045643     -0.012314
Pd     11.54509     12.94351      9.76207         0.015317      0.027642     -0.010521
Pd     13.70268     12.89046     11.49338        -0.021451      0.012488     -0.017693
Pd     11.24049     12.70111     12.35471        -0.003240     -0.016176     -0.005642
Pd     11.32165     11.49117     14.80889        -0.001243      0.001935      0.004176
Pd     11.07214      9.25879     13.25606        -0.001425      0.035337      0.010395
Pd      9.46129      9.57686     15.30545        -0.002754     -0.000985      0.016789
Pd      8.86531     13.74205     11.96615         0.005332      0.008346      0.016187
