152
# total energy = -1022.88527941 eVH     10.35389      5.87395      7.64558         0.472663      0.026537      0.878098
H     10.62451     15.10445      7.64558        -0.050134      0.038828      0.771123
H     10.62451      5.87395     13.33282         0.145612      0.116746     -0.609919
H     10.35389     15.10445     13.33282        -0.249288     -0.082505     -0.558046
H      7.64558     10.35389      5.87395         0.329622     -0.033517      0.189840
H      7.64558     10.62451     15.10445         0.618976     -0.194499     -0.140483
H     13.33282     10.62451      5.87395        -0.834583     -0.312978      0.173754
H     13.33282     10.35389     15.10445        -0.449779     -0.082847     -0.067016
H      5.87395      7.64558     10.35389         0.135652      1.101604     -0.175965
H     15.10445      7.64558     10.62451        -0.170382      0.405680     -0.086333
H      5.87395     13.33282     10.62451         0.143591     -0.409708     -0.072605
H     15.10445     13.33282     10.35389        -0.077853     -0.969463     -0.178149
H      5.87395     10.35389      7.64558         0.129972      0.043778      0.485388
H     15.10445     10.62451      7.64558         0.108505     -0.196068      0.838446
H      5.87395     10.62451     13.33282         0.261867     -0.032772     -0.393855
H     15.10445     10.35389     13.33282        -0.153339      0.014058     -0.621719
H     10.35389      7.64558      5.87395         0.060917      0.889460      0.112954
H     10.62451      7.64558     15.10445         0.025816      0.541469     -0.146086
H     10.62451     13.33282      5.87395         0.046652     -0.594156      0.185451
H     10.35389     13.33282     15.10445        -0.255609     -0.897706     -0.111594
H      7.64558      5.87395     10.35389         0.522050      0.049697     -0.128832
H      7.64558     15.10445     10.62451         0.919937     -0.211756      0.277113
H     13.33282      5.87395     10.62451        -0.439648      0.185300     -0.059391
H     13.33282     15.10445     10.35389        -1.001724     -0.105010      0.249864
H     12.45634     12.45634     19.01126         0.265603      0.257574     -0.225192
H     19.01126     19.01126     19.01126        -0.247583     -0.235147     -0.262137
H     19.01126     12.45634     12.45634        -0.240309      0.271039      0.239447
H     12.45634     19.01126     12.45634         0.211318     -0.282122      0.252890
C     10.35284      5.61067      6.59456        -0.111308     -0.449294     -0.363046
C     10.62556     15.36773      6.59456         0.021762      0.352126     -1.154464
C     10.62556      5.61067     14.38384        -0.032062     -0.215498      0.731071
C     10.35284     15.36773     14.38384         0.166711      0.779845      0.165199
C      6.59456     10.35284      5.61067        -0.407042     -0.039666     -0.176639
C      6.59456     10.62556     15.36773        -0.791130      0.153985      0.349801
C     14.38384     10.62556      5.61067         0.579927      0.291180     -0.376668
C     14.38384     10.35284     15.36773         0.721641     -0.119213      0.429811
C      5.61067      6.59456     10.35284        -0.421400     -0.725806      0.292126
C     15.36773      6.59456     10.62556         0.196439     -0.465455      0.047568
C      5.61067     14.38384     10.62556        -0.251228      0.382012     -0.026767
C     15.36773     14.38384     10.35284         0.408369      0.140934      0.172895
C      5.61067     10.35284      6.59456        -0.307658     -0.016567     -0.888156
C     15.36773     10.62556      6.59456         0.579383     -0.169165     -1.237227
C      5.61067     10.62556     14.38384        -0.450760      0.006426      0.864462
C     15.36773     10.35284     14.38384         0.517888     -0.183652      1.246652
C     10.35284      6.59456      5.61067        -0.039169     -0.933111     -0.659126
C     10.62556      6.59456     15.36773         0.042356     -0.641072      0.288181
C     10.62556     14.38384      5.61067         0.049912      1.225747     -0.684185
C     10.35284     14.38384     15.36773         0.109150      0.610542      0.645579
C      6.59456      5.61067     10.35284        -0.202190     -0.881357      0.127791
C      6.59456     15.36773     10.62556        -1.713668      0.487362      0.047372
C     14.38384      5.61067     10.62556         0.589943     -0.230201     -0.007636
C     14.38384     15.36773     10.35284         0.131727      0.562746     -0.244019
C     10.40319      3.19606      7.29314         0.014673      0.894855     -0.255537
C     10.35913      4.25547      6.23373        -0.056567     -0.373112      0.601583
C      0.08601      7.29314      7.29314        -0.009211     -0.241645     -0.469718
C      0.13007      6.23373      6.23373         0.003109      0.116066      0.207043
C      0.08601      3.19606      3.19606        -0.016926      0.649977      0.186006
C      0.13007      4.25547      4.25547        -0.089017     -0.198512     -0.170006
C     10.40319      7.29314      3.19606        -0.002921     -0.694262      0.525551
C     10.35913      6.23373      4.25547        -0.014589      0.493239     -0.429627
C      7.29314     10.40319      3.19606        -0.338350      0.023614      0.877779
C      6.23373     10.35913      4.25547         0.212524      0.013219     -0.143560
C      7.29314      0.08601      7.29314        -0.310220     -0.045623     -0.280167
C      6.23373      0.13007      6.23373         0.272269     -0.057937      0.299394
C      3.19606      0.08601      3.19606         0.450196     -0.051505      1.281704
C      4.25547      0.13007      4.25547        -0.114673     -0.027829     -0.462781
C      3.19606     10.40319      7.29314         0.699371      0.013953     -0.266586
C      4.25547     10.35913      6.23373        -0.135787      0.030626      0.103711
C      3.19606      7.29314     10.40319         0.607792     -1.271836      0.022972
C      4.25547      6.23373     10.35913        -0.709434      0.849988      0.054346
C      7.29314      7.29314      0.08601        -0.650125     -0.174343     -0.021398
C      6.23373      6.23373      0.13007         0.173880      0.267462     -0.007250
C      3.19606      3.19606      0.08601         0.241938      0.253632     -0.019119
C      4.25547      4.25547      0.13007        -0.056813     -0.037120      0.011360
C      7.29314      3.19606     10.40319        -0.371054      0.814128      0.014704
C      6.23373      4.25547     10.35913         0.885642     -0.158135      0.008369
O     10.43466      3.58206      8.50569        -0.049734      0.036490      0.326540
O     10.54374     17.39634      8.50569        -0.024363     -0.180076      0.600631
O     10.54374      3.58206     12.47271         0.054193      0.060283     -0.323478
O     10.43466     17.39634     12.47271        -0.023276     -0.126090     -0.584469
O      8.50569     10.43466      3.58206         0.373469     -0.025616     -0.017976
O      8.50569     10.54374     17.39634         0.471305      0.052466     -0.142311
O     12.47271     10.54374      3.58206        -0.296749      0.046781     -0.070026
O     12.47271     10.43466     17.39634        -0.851301      0.019137     -0.226749
O      3.58206      8.50569     10.43466         0.044758      0.929531      0.038121
O     17.39634      8.50569     10.54374        -0.041301      0.340215      0.078022
O      3.58206     12.47271     10.54374         0.062870     -0.422466      0.064421
O     17.39634     12.47271     10.43466        -0.171274     -0.788024      0.022753
O      3.58206     10.43466      8.50569        -0.055602     -0.066437      0.226204
O     17.39634     10.54374      8.50569        -0.136555      0.043587      0.464070
O      3.58206     10.54374     12.47271        -0.012510     -0.051436     -0.886901
O     17.39634     10.43466     12.47271        -0.198356      0.045987     -0.772183
O     10.43466      8.50569      3.58206         0.045333      0.679060      0.189566
O     10.54374      8.50569     17.39634         0.053611      0.439898     -0.080916
O     10.54374     12.47271      3.58206        -0.007921     -0.736116      0.225788
O     10.43466     12.47271     17.39634         0.046927     -0.847669     -0.272105
O      8.50569      3.58206     10.43466         0.486157      0.071038     -0.037850
O      8.50569     17.39634     10.54374         0.650434     -0.252136     -0.060095
O     12.47271      3.58206     10.54374        -0.483100      0.163257      0.039648
O     12.47271     17.39634     10.43466        -0.526723     -0.035080     -0.028283
O     11.90042     11.90042     19.56718        -0.303985     -0.312199      0.264776
O     19.56718     19.56718     19.56718         0.286115      0.272413      0.321137
O     19.56718     11.90042     11.90042         0.276922     -0.330395     -0.243675
O     11.90042     19.56718     11.90042        -0.230906      0.290125     -0.241676
O      9.45224      1.03696      9.45224        -0.075351      0.047855     -0.066624
O      1.03696      9.45224      9.45224         0.052355     -0.145884     -0.059586
O      1.03696      1.03696      1.03696         0.040151      0.035482      0.188277
O      9.45224      9.45224      1.03696        -0.042277     -0.091739      0.123276
Zr     10.48920      2.52580     10.48920        -0.006307     -0.075145     -0.026102
Zr     10.48920     18.45260     10.48920         0.059837      0.305682     -0.071783
Zr     10.48920     10.48920      2.52580        -0.093665      0.010881     -0.375344
Zr     10.48920     10.48920     18.45260        -0.135102     -0.149472      0.330683
Zr      2.52580     10.48920     10.48920        -0.359997      0.313409     -0.454638
Zr     18.45260     10.48920     10.48920         0.247716      0.030662     -0.271314
Pd      9.03203     10.24814     13.32867        -0.010410     -0.016523      0.005822
Pd     10.57816      9.71885     10.95147         0.000237     -0.010148     -0.030389
Pd     13.77114      8.53500     12.69018        -0.001047      0.003293     -0.012783
Pd     11.00223     11.06495     15.00903        -0.003928     -0.016017      0.003192
Pd     12.86628     11.17381     13.00595         0.017265      0.008586      0.020201
Pd     15.00059     10.94351     11.34161        -0.000561      0.018287     -0.009405
Pd      6.65051      7.44940     12.34349        -0.003941      0.025010      0.000768
Pd      9.23599      7.27070     10.09903         0.004135      0.019986     -0.026917
Pd      9.27129      7.59787     12.78051         0.003546     -0.007932     -0.026281
Pd     11.70398      7.28927     11.46005        -0.000910      0.001238     -0.015682
Pd     11.42954      7.99170      8.85871         0.029948     -0.001283     -0.016413
Pd      7.26159     11.83372     11.94927         0.010245      0.006452     -0.006652
Pd      8.91032     14.67275      9.33336         0.039156      0.009841      0.022275
Pd      8.41606     12.64723     14.32103        -0.007074     -0.008764      0.000322
Pd     13.55275     14.11288      8.54508         0.086328      0.024758     -0.045720
Pd     11.00955     13.34617      8.52756         0.079955      0.039306      0.042705
Pd     14.10480     11.54371      8.92954        -0.000491      0.020540     -0.011147
Pd      8.62387     14.10176     12.10170         0.008490     -0.005198      0.003207
Pd     12.24064     13.70990     14.03219        -0.007322      0.001908      0.003675
Pd     11.16415     14.42672     11.16211         0.034526     -0.009832      0.049626
Pd     14.04497     13.55880     12.16709        -0.009584      0.017086     -0.000476
Pd     12.30527     12.14062     10.66919         0.011321     -0.026474      0.013045
Pd     12.69114     12.35975      6.70694         0.014258      0.033440     -0.017560
Pd     13.69974      8.94098      7.94294         0.027922      0.002758     -0.003110
Pd      6.87493      8.47387      8.84407         0.006287     -0.000790     -0.010876
Pd      5.52729      9.95217     11.23500        -0.016484      0.020092     -0.039377
Pd      9.17509      9.74378      8.31292         0.019459     -0.022433     -0.016181
Pd      8.81873      7.25412      7.43444        -0.032225     -0.020995     -0.027071
Pd      9.53158     12.08479     10.41927         0.011257      0.003975     -0.020997
Pd     11.56710     10.71193      8.54493         0.014983      0.009602     -0.028710
Pd     11.28083      9.20893      6.43701         0.038076     -0.016106     -0.012297
Pd      9.93803     11.52679      6.37138         0.033497     -0.027834     -0.011657
Ir     11.34963      9.11104     13.33431        -0.005997      0.007847     -0.025806
Ir     13.08399      9.49742     10.40146         0.014919      0.005651     -0.017810
Ir     10.52907     12.34500     12.70784         0.003061     -0.018974      0.026739
Ir      7.16688     10.98928      9.49428         0.092334      0.060601     -0.077865
Ir      8.44284     12.45985      8.16492         0.032437     -0.024802      0.043612
Ir      8.06544      9.29788     11.11088         0.038716     -0.017673      0.009768
