9
# total energy = -63.87762291 eVH      2.54435      2.84647      0.00000         0.001272      0.036094     -0.000000
H      0.02615      6.60841      0.00000        -0.001272     -0.036094     -0.000000
C      1.23142      8.06771     -0.00000        -0.000361      0.005302      0.000000
C      1.33908      1.38717      0.00000         0.000361     -0.005302      0.000000
C     -0.01694      8.82726     -0.00000         0.010819     -0.003208      0.000000
C      0.01694      0.69782     -0.00000        -0.010819      0.003208      0.000000
N      1.55865      2.70735     -0.00000         0.004546     -0.017561     -0.000000
N      1.01186      6.74754     -0.00000        -0.004546      0.017561     -0.000000
Ir      1.28525      4.72744      0.00000         0.000000      0.000000     -0.000000
