152
# total energy = -1058.96185540 eVH     10.35389      5.87395      7.64558        -0.115080      0.020407      1.031191
H     10.62451     15.10445      7.64558        -0.251688     -0.093014      1.026781
H     10.62451      5.87395     13.33282        -0.218691      0.068927     -0.819964
H     10.35389     15.10445     13.33282        -0.022930     -0.258260     -0.844167
H      7.64558     10.35389      5.87395         0.917023     -0.066720      0.238217
H      7.64558     10.62451     15.10445         0.324432     -0.064695     -0.096099
H     13.33282     10.62451      5.87395        -0.693187     -0.007103      0.201400
H     13.33282     10.35389     15.10445        -0.353098      0.027504     -0.073322
H      5.87395      7.64558     10.35389         0.097376      0.388304     -0.125298
H     15.10445      7.64558     10.62451         0.166954      0.735749     -0.262602
H      5.87395     13.33282     10.62451        -0.112599     -1.156699      0.089475
H     15.10445     13.33282     10.35389        -0.023174     -0.331259      0.001006
H      5.87395     10.35389      7.64558         0.311547      0.073929      0.425332
H     15.10445     10.62451      7.64558        -0.224785     -0.104424      0.594785
H      5.87395     10.62451     13.33282        -0.048101      0.657070     -0.384019
H     15.10445     10.35389     13.33282         0.075837     -0.211324     -0.618424
H     10.35389      7.64558      5.87395         0.059964      0.583219      0.370854
H     10.62451      7.64558     15.10445         0.252869      0.932153     -0.006728
H     10.62451     13.33282      5.87395         0.067106     -0.473600      0.198237
H     10.35389     13.33282     15.10445         0.098724     -0.430138     -0.102359
H      7.64558      5.87395     10.35389         0.365265      0.083641     -0.102242
H      7.64558     15.10445     10.62451         0.387972     -0.041299      0.225918
H     13.33282      5.87395     10.62451        -0.289510      0.066138     -0.009253
H     13.33282     15.10445     10.35389        -0.662627     -0.058187      0.114836
H     12.45634     12.45634     19.01126         0.252809      0.264161     -0.232123
H     19.01126     19.01126     19.01126        -0.238543     -0.279570     -0.244278
H     19.01126     12.45634     12.45634        -0.254358      0.262978      0.242416
H     12.45634     19.01126     12.45634         0.276880     -0.237609      0.241308
C     10.35284      5.61067      6.59456         0.353541     -0.295676     -1.345314
C     10.62556     15.36773      6.59456        -0.006046      0.533555     -0.887205
C     10.62556      5.61067     14.38384         0.448631     -0.531083      0.898296
C     10.35284     15.36773     14.38384        -0.140294      0.221128      1.112294
C      6.59456     10.35284      5.61067        -1.420712      0.081552     -0.292716
C      6.59456     10.62556     15.36773        -0.612547      0.055337      0.277696
C     14.38384     10.62556      5.61067         0.944020     -0.036268     -0.471757
C     14.38384     10.35284     15.36773         0.579781     -0.061681      0.239664
C      5.61067      6.59456     10.35284        -0.334717     -0.496370      0.045930
C     15.36773      6.59456     10.62556         0.259469     -1.349707      0.101720
C      5.61067     14.38384     10.62556         0.013982      1.284189     -0.210744
C     15.36773     14.38384     10.35284         0.537036      0.649692     -0.017940
C      5.61067     10.35284      6.59456        -0.400615     -0.191338     -1.014892
C     15.36773     10.62556      6.59456         0.411082      0.047797     -0.960781
C      5.61067     10.62556     14.38384        -0.527653     -0.209763      1.378046
C     15.36773     10.35284     14.38384         0.386527      0.003283      1.341715
C     10.35284      6.59456      5.61067        -0.066807     -0.945794     -0.666795
C     10.62556      6.59456     15.36773        -0.198168     -0.930706      0.393480
C     10.62556     14.38384      5.61067        -0.321351      0.463937     -0.670198
C     10.35284     14.38384     15.36773        -0.091511      0.841521      0.407832
C      6.59456      5.61067     10.35284        -0.342135     -0.274314      0.141014
C      6.59456     15.36773     10.62556        -0.612842      0.645531      0.026936
C     14.38384      5.61067     10.62556         0.455469     -0.540623     -0.021224
C     14.38384     15.36773     10.35284         1.202485      0.656888     -0.063013
C     10.40319      3.19606      7.29314        -0.003568      0.521238     -0.340878
C     10.35913      4.25547      6.23373        -0.042051     -0.450899      0.354722
C      0.08601      7.29314      7.29314        -0.034805     -0.238303     -0.500227
C      0.13007      6.23373      6.23373        -0.110305      0.839628      0.081305
C      0.08601      3.19606      3.19606        -0.004338      0.660123      0.293929
C      0.13007      4.25547      4.25547        -0.005055     -0.340742     -0.374763
C     10.40319      7.29314      3.19606        -0.060082     -0.864962      0.511772
C     10.35913      6.23373      4.25547        -0.054808      0.380678     -0.141626
C      7.29314     10.40319      3.19606        -0.918025     -0.048500      0.118415
C      6.23373     10.35913      4.25547         0.230065      0.088274     -0.357480
C      7.29314      0.08601      7.29314        -0.350682      0.042410     -0.894785
C      6.23373      0.13007      6.23373         0.213293      0.113010      0.178847
C      3.19606      0.08601      3.19606         0.574134      0.009592      0.320170
C      4.25547      0.13007      4.25547        -0.165355     -0.007711     -0.238909
C      3.19606     10.40319      7.29314         0.282456     -0.022572     -0.880977
C      4.25547     10.35913      6.23373        -0.195826     -0.086603      0.142034
C      3.19606      7.29314     10.40319         0.615626     -0.403520     -0.004208
C      4.25547      6.23373     10.35913        -0.216679      0.157978      0.034332
C      7.29314      7.29314      0.08601        -0.371188     -0.405319     -0.020133
C      6.23373      6.23373      0.13007         0.347185      0.317078      0.001215
C      3.19606      3.19606      0.08601         0.283730      0.468461     -0.022394
C      4.25547      4.25547      0.13007        -0.522051     -0.228212     -0.052410
C      7.29314      3.19606     10.40319        -0.280556      0.643471     -0.016046
C      6.23373      4.25547     10.35913        -0.019182     -0.244107      0.054631
O     10.43466      3.58206      8.50569        -0.025029      0.149394      0.367153
O     10.54374     17.39634      8.50569         0.107216     -0.157113      0.617826
O     10.54374      3.58206     12.47271         0.025504      0.102543     -0.386457
O     10.43466     17.39634     12.47271         0.099565     -0.114484     -0.397111
O      8.50569     10.43466      3.58206         0.752008     -0.101739      0.126024
O      8.50569     10.54374     17.39634         0.306723      0.046811      0.004051
O     12.47271     10.54374      3.58206        -0.645986      0.092930      0.194153
O     12.47271     10.43466     17.39634        -0.269921      0.001571      0.016179
O      3.58206      8.50569     10.43466         0.067810      0.455937     -0.024678
O     17.39634      8.50569     10.54374        -0.055957      0.433337      0.059974
O      3.58206     12.47271     10.54374         0.099539     -0.548777      0.027219
O     17.39634     12.47271     10.43466        -0.184636     -0.737198     -0.069121
O      3.58206     10.43466      8.50569         0.249716     -0.045208      0.831651
O     17.39634     10.54374      8.50569        -0.266053      0.093645      0.794616
O      3.58206     10.54374     12.47271         0.033639     -0.036933     -0.331032
O     17.39634     10.43466     12.47271         0.053335     -0.012160     -0.194902
O     10.43466      8.50569      3.58206        -0.149547      0.587636      0.050859
O     10.54374      8.50569     17.39634         0.044893      0.430504     -0.109976
O     10.54374     12.47271      3.58206         0.095593     -0.676113      0.156076
O     10.43466     12.47271     17.39634        -0.049179     -0.596404     -0.201992
O      8.50569      3.58206     10.43466         0.376307      0.025457     -0.031226
O      8.50569     17.39634     10.54374         0.634985     -0.141633      0.052186
O     12.47271      3.58206     10.54374        -0.530577      0.140899      0.025645
O     12.47271     17.39634     10.43466        -0.626396     -0.162908      0.001556
O     11.90042     11.90042     19.56718        -0.278639     -0.317417      0.250976
O     19.56718     19.56718     19.56718         0.287784      0.326737      0.284183
O     19.56718     11.90042     11.90042         0.297440     -0.320073     -0.240277
O     11.90042     19.56718     11.90042        -0.305785      0.240839     -0.215577
O      9.45224      1.03696      9.45224        -0.067025      0.076734     -0.098413
O      1.03696      9.45224      9.45224         0.088176     -0.099936     -0.043645
O      1.03696      1.03696      1.03696         0.064253      0.016233      0.119846
O      9.45224      9.45224      1.03696        -0.010216     -0.113708      0.151644
Zr     10.48920      2.52580     10.48920         0.042646     -0.048952      0.042841
Zr     10.48920     18.45260     10.48920        -0.203667      0.252538     -0.285686
Zr     10.48920     10.48920      2.52580         0.055584      0.256439     -0.371125
Zr     10.48920     10.48920     18.45260        -0.012777     -0.157963      0.126548
Zr      2.52580     10.48920     10.48920        -0.211714      0.151142      0.160058
Zr     18.45260     10.48920     10.48920         0.142351     -0.120084      0.183344
Pd      9.30959     14.11298      9.80355         0.054663     -0.006664     -0.249295
Pd      8.75142     13.46831     13.06837        -0.056060      0.124479      0.062590
Pd     11.91249     14.55309      8.76890        -0.051342     -0.089615      0.070971
Pd     12.86095     12.90073     10.45445        -0.004050     -0.084755      0.076440
Pd     12.29241      7.13502     12.83804        -0.064007     -0.000880     -0.017507
Pd     11.37831     14.74575     11.68112        -0.100884     -0.117980      0.024858
Pd     10.35051     12.25724     11.31003        -0.170462      0.091746      0.002379
Pd     13.39486     12.20861      7.90071         0.033117     -0.054339      0.028744
Pd     11.29744     11.48409      6.17904         0.093822      0.030388     -0.051140
Pd      7.69749      8.47578      7.80116         0.114082      0.078565     -0.208584
Pd      8.65095     11.70952      7.06414         0.058784      0.025981     -0.052180
Pd     10.17329      9.52552      8.37725         0.172192     -0.046491     -0.053460
Pd      8.60719     14.41951      7.24909        -0.073600     -0.020026     -0.191292
Pd     12.12723      9.03246      6.77337         0.154480      0.034155     -0.104716
Pd      9.53851      9.46902      5.77076         0.146929      0.021482     -0.002330
Pd      6.56040      9.48943     12.05388         0.333355      0.124732      0.070956
Pd     12.36802      6.62432      7.91130        -0.157315     -0.027662     -0.063807
Pd      6.00590     10.55477      9.59672        -0.033385     -0.040525      0.019795
Pd      7.52761      7.12275     12.69699         0.016090      0.024929      0.087226
Ir     11.97634      9.74009     13.12717        -0.034769     -0.007403     -0.042832
Ir     13.77825      8.81991     11.51644        -0.151741      0.089240     -0.112733
Ir      9.50995      8.64918     13.69794         0.008906      0.017878      0.016375
Ir     10.43739     11.08278     14.60395         0.182071     -0.105003      0.161209
Ir      7.21145     12.09101     11.45883         0.228297     -0.032475     -0.060519
Ir     14.90874     10.69893      9.89540        -0.075291      0.097867      0.005750
Ir     12.27677     10.47701      9.65079         0.004073      0.034543      0.181407
Ir      8.68256     10.82418     12.92000         0.044326      0.198502      0.147590
Ir     10.34686      9.71655     11.31083        -0.320653     -0.089643     -0.058758
Ir     13.79243     11.23800     12.05382         0.130185      0.009353      0.164578
Ir     11.98435     12.41840     13.14513        -0.097620     -0.081785     -0.066444
Ir      8.56545     11.16620      9.61122        -0.082212     -0.130016     -0.141597
Ir     11.82052      7.94462     10.11065        -0.390642     -0.039552     -0.053928
Ir      7.09708     12.97377      8.79090         0.015724     -0.026563     -0.017934
Ir      9.59526      7.00985      9.10084        -0.002034      0.020311      0.038204
Ir      8.17374      8.72531     10.29418         0.119594     -0.143070     -0.183386
Ir     10.75319     12.15997      8.61829         0.068650     -0.140601      0.059598
Ir      9.87854      7.21611     11.59011        -0.029404      0.118129     -0.157036
Ir     13.77834      8.70823      8.72670         0.029222     -0.101611     -0.042043
