152
# total energy = -1091.89553458 eVH     10.35389      5.87395      7.64558         0.867364     -1.295150      1.566531
H     10.62451     15.10445      7.64558        -0.704110      1.234681      1.910326
H     10.62451      5.87395     13.33282         0.802433     -0.531578     -2.012454
H     10.35389     15.10445     13.33282        -0.831934      0.627642     -1.875595
H      7.64558     10.35389      5.87395         0.376234     -0.126104      0.029000
H      7.64558     10.62451     15.10445         0.610620     -0.224885      0.137233
H     13.33282     10.62451      5.87395        -0.437814      0.024859      0.104008
H     13.33282     10.35389     15.10445        -0.640188      0.246916      0.040063
H      5.87395      7.64558     10.35389        -0.004188      1.252640      0.004988
H     15.10445      7.64558     10.62451        -0.019782      0.652946     -0.017239
H      5.87395     13.33282     10.62451        -0.063144     -0.587235     -0.008317
H     15.10445     13.33282     10.35389         0.144655     -1.313904      0.051722
H      5.87395     10.35389      7.64558        -0.139566      0.022116      0.150522
H     15.10445     10.62451      7.64558         0.205695      0.095468      0.255068
H      5.87395     10.62451     13.33282        -0.113962      0.325662     -0.467856
H     15.10445     10.35389     13.33282        -0.014910     -0.243165     -0.270662
H     10.35389      7.64558      5.87395        -0.222066      0.693345     -0.098776
H     10.62451      7.64558     15.10445         0.220648      0.617630      0.335477
H     10.62451     13.33282      5.87395        -0.192166     -1.062548     -0.172181
H     10.35389     13.33282     15.10445        -0.147928     -0.790136      0.283919
H      7.64558      5.87395     10.35389         0.561932     -0.071257     -0.102685
H      7.64558     15.10445     10.62451         0.811765     -0.024098     -0.025461
H     13.33282      5.87395     10.62451        -0.692368      0.000320      0.155354
H     13.33282     15.10445     10.35389        -0.548213      0.176020     -0.047270
H     12.45634     12.45634     19.01126         0.257881      0.252834     -0.242247
H     19.01126     19.01126     19.01126        -0.258459     -0.249256     -0.243144
H     19.01126     12.45634     12.45634        -0.249252      0.268762      0.236648
H     12.45634     19.01126     12.45634         0.252825     -0.271761      0.231024
C     10.35284      5.61067      6.59456        -0.474237      0.049028     -1.993424
C     10.62556     15.36773      6.59456         0.380138     -0.125821     -2.083335
C     10.62556      5.61067     14.38384        -0.319444     -0.269685      2.054765
C     10.35284     15.36773     14.38384         0.338024      0.161824      1.913521
C      6.59456     10.35284      5.61067        -0.563227     -0.015442     -0.242090
C      6.59456     10.62556     15.36773        -0.952780     -0.051316      0.428164
C     14.38384     10.62556      5.61067         0.655418      0.004746     -0.204464
C     14.38384     10.35284     15.36773         0.825489     -0.060296      0.292734
C      5.61067      6.59456     10.35284        -0.160651     -0.579625      0.110601
C     15.36773      6.59456     10.62556         0.261465     -1.057092      0.000343
C      5.61067     14.38384     10.62556        -0.360750      1.057656      0.023353
C     15.36773     14.38384     10.35284         0.320380      0.947351      0.042051
C      5.61067     10.35284      6.59456        -0.678658      0.086179     -1.889111
C     15.36773     10.62556      6.59456         0.628770      0.029977     -1.858528
C      5.61067     10.62556     14.38384        -0.750646      0.009687      1.984203
C     15.36773     10.35284     14.38384         0.617331     -0.092231      1.498916
C     10.35284      6.59456      5.61067         0.029137     -1.537768     -0.812719
C     10.62556      6.59456     15.36773         0.037903     -1.821241      1.119160
C     10.62556     14.38384      5.61067         0.090248      1.649592     -0.804797
C     10.35284     14.38384     15.36773        -0.100323      1.885786      1.004363
C      6.59456      5.61067     10.35284        -0.167344     -0.806495     -0.158860
C      6.59456     15.36773     10.62556        -1.616504      0.544146      0.004465
C     14.38384      5.61067     10.62556         1.705027     -0.657773     -0.073126
C     14.38384     15.36773     10.35284         0.296880      1.029235     -0.041537
C     10.40319      3.19606      7.29314        -0.009684      0.611255     -0.329817
C     10.35913      4.25547      6.23373         0.076810     -0.842047      0.695139
C      0.08601      7.29314      7.29314        -0.007525     -0.593621     -0.335992
C      0.13007      6.23373      6.23373        -0.117682      0.862070      0.758477
C      0.08601      3.19606      3.19606        -0.054204      0.499867      0.353300
C      0.13007      4.25547      4.25547        -0.006942     -0.985706     -0.495533
C     10.40319      7.29314      3.19606         0.049390     -0.490482      0.321805
C     10.35913      6.23373      4.25547         0.050811      0.756947     -0.573377
C      7.29314     10.40319      3.19606        -0.348451      0.019832      0.723779
C      6.23373     10.35913      4.25547         0.306844     -0.036332     -0.379816
C      7.29314      0.08601      7.29314        -0.384100      0.046262     -0.415285
C      6.23373      0.13007      6.23373         0.174944      0.069364      0.520852
C      3.19606      0.08601      3.19606         0.311524      0.016432      0.839119
C      4.25547      0.13007      4.25547        -0.414634      0.134570     -0.359635
C      3.19606     10.40319      7.29314         0.418296     -0.000264     -0.649628
C      4.25547     10.35913      6.23373        -0.327043     -0.002942      0.627940
C      3.19606      7.29314     10.40319         0.301854     -0.536158     -0.001137
C      4.25547      6.23373     10.35913        -0.810787      0.331562      0.006774
C      7.29314      7.29314      0.08601        -0.367396     -0.198367     -0.001181
C      6.23373      6.23373      0.13007         0.078171      0.351327     -0.035785
C      3.19606      3.19606      0.08601         0.359058      0.182804     -0.019254
C      4.25547      4.25547      0.13007        -0.098193     -0.281740     -0.023127
C      7.29314      3.19606     10.40319        -0.373946      0.617292     -0.013816
C      6.23373      4.25547     10.35913         0.640233     -0.696268      0.034651
O     10.43466      3.58206      8.50569        -0.012379      0.163734      0.327959
O     10.54374     17.39634      8.50569         0.011030     -0.178155      0.326573
O     10.54374      3.58206     12.47271         0.070703      0.196912     -0.357051
O     10.43466     17.39634     12.47271        -0.089935     -0.211461     -0.334499
O      8.50569     10.43466      3.58206         0.421837     -0.020857      0.086597
O      8.50569     10.54374     17.39634         0.495726      0.052739     -0.151606
O     12.47271     10.54374      3.58206        -0.354230      0.021018      0.047657
O     12.47271     10.43466     17.39634        -0.481453     -0.049436     -0.118220
O      3.58206      8.50569     10.43466         0.115320      0.519576     -0.032181
O     17.39634      8.50569     10.54374        -0.126621      0.441427      0.038790
O      3.58206     12.47271     10.54374         0.098238     -0.395626      0.050683
O     17.39634     12.47271     10.43466        -0.215759     -0.637679      0.009714
O      3.58206     10.43466      8.50569         0.242383     -0.044380      0.581127
O     17.39634     10.54374      8.50569        -0.157208     -0.001705      0.469501
O      3.58206     10.54374     12.47271         0.399465     -0.069988     -0.656470
O     17.39634     10.43466     12.47271        -0.234990      0.002420     -0.647355
O     10.43466      8.50569      3.58206         0.033950      0.544688      0.280927
O     10.54374      8.50569     17.39634         0.079443      0.618134     -0.306573
O     10.54374     12.47271      3.58206         0.016518     -0.595751      0.271644
O     10.43466     12.47271     17.39634        -0.064631     -0.629389     -0.309470
O      8.50569      3.58206     10.43466         0.544386      0.146789     -0.037416
O      8.50569     17.39634     10.54374         0.488947     -0.177376      0.033870
O     12.47271      3.58206     10.54374        -0.493383      0.183618      0.009438
O     12.47271     17.39634     10.43466        -0.527866     -0.166621     -0.024296
O     11.90042     11.90042     19.56718        -0.293043     -0.304204      0.255511
O     19.56718     19.56718     19.56718         0.306015      0.292127      0.260239
O     19.56718     11.90042     11.90042         0.300980     -0.325811     -0.262409
O     11.90042     19.56718     11.90042        -0.284378      0.320247     -0.248239
O      9.45224      1.03696      9.45224        -0.044331      0.032644     -0.094153
O      1.03696      9.45224      9.45224         0.058997     -0.038074     -0.088095
O      1.03696      1.03696      1.03696         0.082031      0.031570      0.100952
O      9.45224      9.45224      1.03696        -0.053482     -0.053543      0.098519
Zr     10.48920      2.52580     10.48920        -0.117171     -0.053883      0.019657
Zr     10.48920     18.45260     10.48920         0.086837      0.081125     -0.020148
Zr     10.48920     10.48920      2.52580        -0.048842      0.047111     -0.219493
Zr     10.48920     10.48920     18.45260        -0.008243      0.004017      0.234481
Zr      2.52580     10.48920     10.48920        -0.150291     -0.006301     -0.118554
Zr     18.45260     10.48920     10.48920         0.183573      0.048686     -0.092881
Pd     13.36319      8.39461      7.99817        -0.001024     -0.005156     -0.072035
Pd      8.85062     14.18309     12.05595         0.081472      0.191517     -0.088079
Pd     12.17579     11.20840     10.64283         0.070262      0.008565     -0.149941
Pd     14.69194     10.92282     11.72684        -0.090217     -0.182170     -0.096154
Pd     11.27869      9.19770      6.43739        -0.102886     -0.065932      0.057592
Pd      7.09429      7.60755      8.60377        -0.040046      0.170953      0.056046
Ir      9.90465     11.72876     11.95687         0.005795     -0.042448     -0.029820
Ir     13.20965      8.73540     10.71307         0.016014     -0.000232     -0.035905
Ir     12.12044     11.15277      7.96736        -0.056494     -0.125311     -0.029895
Ir      8.95501     14.05531      9.30583         0.059922     -0.043104     -0.055976
Ir     10.88061      9.27167     11.94526         0.072567      0.005828     -0.013708
Ir      8.70293      9.66290      8.00783        -0.023925      0.153222     -0.180203
Ir     13.46735     12.99181      9.11440         0.127320      0.034946      0.063695
Ir     11.28464     13.51430      7.93905         0.038306      0.117193      0.032182
Ir     14.26744     10.53259      9.24446         0.115717     -0.035655      0.143522
Ir      9.67270      7.23111     10.64695        -0.165866     -0.113663     -0.021152
Ir      7.72403     12.14449      7.98309         0.034778      0.015867     -0.153043
Ir      9.66167      7.41582      8.06500        -0.011174     -0.051375     -0.025829
Ir     11.41071     13.62448     13.16431         0.076162     -0.026311      0.090011
Ir     11.95524      6.97242     12.12066        -0.022908     -0.021954     -0.074796
Ir      9.87198     11.62512      9.30819         0.140657     -0.085079     -0.092754
Ir     13.28907      8.77144     13.32304         0.007211     -0.085949     -0.006061
Ir     11.00025      9.20184      9.29172        -0.034322      0.066497     -0.083584
Ir     11.14151     13.68614     10.53455         0.109772      0.056160     -0.073925
Ir     13.40548     13.21654     11.87191        -0.063501     -0.011703      0.034975
Ir     12.20055     11.22787     13.27130         0.108539      0.011158      0.057424
Ir      9.93131     11.45139      6.66916        -0.101852      0.026912      0.016299
Ir     11.88075      6.82614      9.53292        -0.065788     -0.287611     -0.052443
Ir      7.39833      7.69704     11.95904         0.000795      0.029042      0.088093
Ir      7.68801     12.19121     10.61399         0.007420      0.000125      0.041864
Ir     11.00609      9.35145     14.48862         0.071502     -0.020900     -0.040889
Ir      7.60651     12.06305     13.19400         0.032583      0.056299     -0.027404
Ir      6.51238     10.18141      9.33668         0.079219      0.139411      0.243158
Ir      8.65045      9.68362     13.28891         0.042275      0.108394     -0.039970
Ir      6.36078     10.03476     11.72823         0.084914      0.268661     -0.239596
Ir      9.39422      7.23551     13.25670        -0.123243     -0.002773      0.009806
Ir      9.87851     11.60457     14.51065        -0.085472     -0.050021     -0.067891
Ir      8.64946      9.63818     10.64190         0.006372      0.091411     -0.039445
