33
# total energy = -231.16439622 eVH      9.31165      4.28421      7.50000         0.028673      0.010086      0.000000
H      0.89055      5.91799      7.50000        -0.028673     -0.010086     -0.000000
H      5.91799      9.31165      7.50000        -0.010086      0.028673     -0.000000
H      4.28421      0.89055      7.50000         0.010086     -0.028673      0.000000
H      0.89055      4.28421      7.50000        -0.028673      0.010086      0.000000
H      9.31165      5.91799      7.50000         0.028673     -0.010086     -0.000000
H      4.28421      9.31165      7.50000         0.010086      0.028673     -0.000000
H      5.91799      0.89055      7.50000        -0.010086     -0.028673     -0.000000
C      0.00000      1.94291      7.50000        -0.000000      0.208888     -0.000000
C      0.00000      8.25929      7.50000        -0.000000     -0.208888      0.000000
C      8.25929      0.00000      7.50000        -0.208888     -0.000000     -0.000000
C      1.94291      0.00000      7.50000         0.208888     -0.000000      0.000000
C      8.83449      2.44945      7.50000         0.159062      0.093927      0.000000
C      1.36771      7.75275      7.50000        -0.159062     -0.093927      0.000000
C      7.75275      8.83449      7.50000        -0.093927      0.159062      0.000000
C      2.44945      1.36771      7.50000         0.093927     -0.159062     -0.000000
C      1.36771      2.44945      7.50000        -0.159062      0.093927      0.000000
C      8.83449      7.75275      7.50000         0.159062     -0.093927     -0.000000
C      2.44945      8.83449      7.50000         0.093927      0.159062     -0.000000
C      7.75275      1.36771      7.50000        -0.093927     -0.159062      0.000000
N      8.45701      3.72278      7.50000         0.019160     -0.069524     -0.000000
N      1.74519      6.47942      7.50000        -0.019160      0.069524     -0.000000
N      6.47942      8.45701      7.50000         0.069524      0.019160     -0.000000
N      3.72278      1.74519      7.50000        -0.069524     -0.019160      0.000000
N      1.74519      3.72278      7.50000        -0.019160     -0.069524      0.000000
N      8.45701      6.47942      7.50000         0.019160      0.069524      0.000000
N      3.72278      8.45701      7.50000        -0.069524      0.019160      0.000000
N      6.47942      1.74519      7.50000         0.069524     -0.019160     -0.000000
Ir      5.10110      6.75406      7.50000         0.000000      0.182697      0.000000
Ir      5.10110      3.44814      7.50000         0.000000     -0.182697      0.000000
Ir      3.44814      5.10110      7.50000        -0.182697      0.000000      0.000000
Ir      6.75406      5.10110      7.50000         0.182697     -0.000000     -0.000000
Ir      0.00000      0.00000      7.50000        -0.000000     -0.000000     -0.000000
