33
# total energy = -231.16262249 eVH      9.31233      4.28458      7.50000         0.081464      0.040664     -0.000000
H      0.88987      5.91762      7.50000        -0.081464     -0.040664     -0.000000
H      5.91762      9.31233      7.50000        -0.040664      0.081464     -0.000000
H      4.28458      0.88987      7.50000         0.040664     -0.081464      0.000000
H      0.88987      4.28458      7.50000        -0.081464      0.040664      0.000000
H      9.31233      5.91762      7.50000         0.081464     -0.040664     -0.000000
H      4.28458      9.31233      7.50000         0.040664      0.081464      0.000000
H      5.91762      0.88987      7.50000        -0.040664     -0.081464     -0.000000
C     -0.00000      1.95002      7.50000        -0.000000     -0.105204      0.000000
C      0.00000      8.25218      7.50000        -0.000000      0.105204     -0.000000
C      8.25218      0.00000      7.50000         0.105204     -0.000000      0.000000
C      1.95002      0.00000      7.50000        -0.105204     -0.000000     -0.000000
C      8.83863      2.44898      7.50000        -0.058247      0.128134      0.000000
C      1.36357      7.75322      7.50000         0.058247     -0.128134     -0.000000
C      7.75322      8.83863      7.50000        -0.128134     -0.058247      0.000000
C      2.44898      1.36357      7.50000         0.128134      0.058247      0.000000
C      1.36357      2.44898      7.50000         0.058247      0.128134     -0.000000
C      8.83863      7.75322      7.50000        -0.058247     -0.128134     -0.000000
C      2.44898      8.83863      7.50000         0.128134     -0.058247     -0.000000
C      7.75322      1.36357      7.50000        -0.128134      0.058247     -0.000000
N      8.45937      3.72335      7.50000        -0.038813     -0.135030      0.000000
N      1.74283      6.47885      7.50000         0.038813      0.135030     -0.000000
N      6.47885      8.45937      7.50000         0.135030     -0.038813     -0.000000
N      3.72335      1.74283      7.50000        -0.135030      0.038813      0.000000
N      1.74283      3.72335      7.50000         0.038813     -0.135030     -0.000000
N      8.45937      6.47885      7.50000        -0.038813      0.135030      0.000000
N      3.72335      8.45937      7.50000        -0.135030     -0.038813      0.000000
N      6.47885      1.74283      7.50000         0.135030      0.038813     -0.000000
Ir      5.10110      6.75957      7.50000        -0.000000     -0.038010     -0.000000
Ir      5.10110      3.44263      7.50000        -0.000000      0.038010     -0.000000
Ir      3.44263      5.10110      7.50000         0.038010     -0.000000      0.000000
Ir      6.75957      5.10110      7.50000        -0.038010     -0.000000     -0.000000
Ir     -0.00000     -0.00000      7.50000        -0.000000     -0.000000     -0.000000
