26
# total energy = -169.64742503 eVH      0.37469      6.90685      7.50000        -0.004987      0.029659      0.000000
H      2.82360      2.05942      7.50000         0.022920      0.002888      0.000000
H      6.20012      6.72315      7.50000        -0.022180     -0.053580      0.000000
H      8.93929     -1.55201      7.50000         0.004987     -0.029659      0.000000
H      6.49039      3.29543      7.50000        -0.022920     -0.002888     -0.000000
H      3.11386     -1.36830      7.50000         0.022180      0.053580      0.000000
C      8.50905      4.15837      7.50000        -0.136218     -0.002037      0.000000
C      1.45316     -0.08413      7.50000        -0.083535     -0.029611     -0.000000
C      8.71091     -3.71480      7.50000        -0.101126     -0.034625     -0.000000
C      0.80493      1.19648      7.50000         0.136218      0.002037      0.000000
C      7.86082      5.43898      7.50000         0.083535      0.029611      0.000000
C      0.60307      9.06965      7.50000         0.101126      0.034625     -0.000000
C      8.20905     -2.36571      7.50000        -0.103746      0.105870      0.000000
C      7.54681      2.98464      7.50000         0.113479     -0.184589      0.000000
C      2.85518     -0.31573      7.50000         0.061419      0.039996     -0.000000
C      1.10493      7.72055      7.50000         0.103746     -0.105870      0.000000
C      1.76717      2.37021      7.50000        -0.113479      0.184589      0.000000
C      6.45880      5.67058      7.50000        -0.061419     -0.039996     -0.000000
O      6.96166     -2.08039      7.50000         0.060434      0.019257     -0.000000
O      7.80917      1.77966      7.50000        -0.039419      0.167537     -0.000000
O      3.86861      0.51545      7.50000         0.038758     -0.069346      0.000000
O      2.35232      7.43523      7.50000        -0.060434     -0.019257      0.000000
O      1.50481      3.57519      7.50000         0.039419     -0.167537     -0.000000
O      5.44538      4.83940      7.50000        -0.038758      0.069346      0.000000
Au      5.61747     -0.57018      7.50000         0.000318      0.079396      0.000000
Au      3.69651      5.92503      7.50000        -0.000318     -0.079396      0.000000
