152
# total energy = -1005.98151903 eVH     10.35389      5.87395      7.64558         0.258135      0.037627      0.639419
H     10.62451     15.10445      7.64558        -0.109367     -0.142463      0.527560
H     10.62451      5.87395     13.33282         0.486843      0.120279     -0.584370
H     10.35389     15.10445     13.33282         0.071198     -0.184757     -0.545896
H      7.64558     10.35389      5.87395         0.370562      0.047501      0.172417
H      7.64558     10.62451     15.10445         0.690272      0.471386     -0.042405
H     13.33282     10.62451      5.87395        -0.532417      0.418829      0.075595
H     13.33282     10.35389     15.10445        -0.799400     -0.095478      0.004392
H      5.87395      7.64558     10.35389         0.249675      0.777995     -0.300774
H     15.10445      7.64558     10.62451        -0.094590      0.485272      0.285570
H      5.87395     13.33282     10.62451         0.157312     -0.698473     -0.161321
H     15.10445     13.33282     10.35389        -0.004176     -1.044711     -0.330714
H      5.87395     10.35389      7.64558         0.253569      0.162098      0.619237
H     15.10445     10.62451      7.64558        -0.111164      0.407714      0.766981
H      5.87395     10.62451     13.33282         0.140825      0.335217     -0.697004
H     15.10445     10.35389     13.33282        -0.040901     -0.076239     -0.701476
H     10.35389      7.64558      5.87395         0.369828      1.044236     -0.009437
H     10.62451      7.64558     15.10445         0.536754      0.536081     -0.118248
H     10.62451     13.33282      5.87395        -0.396531     -0.836602      0.187939
H     10.35389     13.33282     15.10445        -0.043191     -0.433244     -0.217121
H      7.64558      5.87395     10.35389         0.854774      0.088593     -0.290456
H      7.64558     15.10445     10.62451         0.828969     -0.200676      0.001517
H     13.33282      5.87395     10.62451        -0.796030      0.189806      0.591622
H     13.33282     15.10445     10.35389        -0.444943     -0.107151     -0.136548
H     12.45634     12.45634     19.01126         0.235548      0.270992     -0.239505
H     19.01126     19.01126     19.01126        -0.262344     -0.240858     -0.261576
H     19.01126     12.45634     12.45634        -0.266721      0.268537      0.219755
H     12.45634     19.01126     12.45634         0.232755     -0.256765      0.276901
C     10.35284      5.61067      6.59456        -0.431784     -0.689925      0.153468
C     10.62556     15.36773      6.59456         0.065255      0.363404     -0.308184
C     10.62556      5.61067     14.38384        -0.329814     -0.374664     -0.295741
C     10.35284     15.36773     14.38384        -0.006328      0.342361      0.534838
C      6.59456     10.35284      5.61067        -0.281935     -0.006133     -0.333766
C      6.59456     10.62556     15.36773        -0.252766     -0.216579      0.799155
C     14.38384     10.62556      5.61067        -0.244342     -0.396475     -0.524637
C     14.38384     10.35284     15.36773         0.972253     -0.063286      0.255800
C      5.61067      6.59456     10.35284        -0.536009     -0.005797      0.058795
C     15.36773      6.59456     10.62556         0.533820      0.016329     -0.250032
C      5.61067     14.38384     10.62556        -0.324628      0.978011      0.080065
C     15.36773     14.38384     10.35284         0.304268      1.047113      0.049567
C      5.61067     10.35284      6.59456        -0.190126     -0.218743     -0.609056
C     15.36773     10.62556      6.59456         0.446311     -0.277745      0.114536
C      5.61067     10.62556     14.38384        -0.701786     -0.343682     -0.079416
C     15.36773     10.35284     14.38384         0.383250     -0.064149      1.025992
C     10.35284      6.59456      5.61067        -0.218862     -0.271716     -0.656489
C     10.62556      6.59456     15.36773        -0.266640      0.131613      0.451902
C     10.62556     14.38384      5.61067         0.194827      1.062575     -0.347617
C     10.35284     14.38384     15.36773         0.017096      0.544901      0.443855
C      6.59456      5.61067     10.35284        -0.149542     -0.730225      0.250855
C      6.59456     15.36773     10.62556        -1.005862      0.287479      0.079523
C     14.38384      5.61067     10.62556         0.497978     -0.554938     -0.366737
C     14.38384     15.36773     10.35284         0.218319      0.462105     -0.099960
C     10.40319      3.19606      7.29314         0.013032      0.679669     -0.478212
C     10.35913      4.25547      6.23373         0.087218     -0.722563     -0.022456
C      0.08601      7.29314      7.29314        -0.044180     -0.407389     -0.313040
C      0.13007      6.23373      6.23373        -0.023287      0.086535      0.573466
C      0.08601      3.19606      3.19606        -0.012884      1.267930      0.283798
C      0.13007      4.25547      4.25547         0.050059     -0.778237     -0.155385
C     10.40319      7.29314      3.19606         0.011451     -0.326040      0.331172
C     10.35913      6.23373      4.25547         0.026082      0.006205     -0.843604
C      7.29314     10.40319      3.19606        -0.322638      0.022361      0.565164
C      6.23373     10.35913      4.25547         0.201001      0.064694     -0.090052
C      7.29314      0.08601      7.29314        -0.517757     -0.064967     -0.376755
C      6.23373      0.13007      6.23373         0.678819     -0.053849      0.479325
C      3.19606      0.08601      3.19606         0.719021     -0.034596      0.569123
C      4.25547      0.13007      4.25547        -0.581470     -0.086748     -0.545232
C      3.19606     10.40319      7.29314         0.480560     -0.013879     -0.769111
C      4.25547     10.35913      6.23373        -0.404176      0.052655      0.198589
C      3.19606      7.29314     10.40319         0.294864     -1.275661      0.045068
C      4.25547      6.23373     10.35913        -0.770007      0.109097      0.153017
C      7.29314      7.29314      0.08601        -0.407865     -0.374217     -0.027130
C      6.23373      6.23373      0.13007         0.467474      0.214494     -0.017961
C      3.19606      3.19606      0.08601         0.490102      0.375637     -0.040623
C      4.25547      4.25547      0.13007        -0.157481     -0.647650     -0.035210
C      7.29314      3.19606     10.40319        -0.325289      0.436950      0.076772
C      6.23373      4.25547     10.35913         0.283275     -0.683791      0.145112
O     10.43466      3.58206      8.50569        -0.018388      0.105158      0.501351
O     10.54374     17.39634      8.50569         0.036230     -0.175265      0.486189
O     10.54374      3.58206     12.47271         0.054165     -0.088061     -0.184916
O     10.43466     17.39634     12.47271        -0.038396     -0.183323     -0.546585
O      8.50569     10.43466      3.58206         0.308144     -0.003856      0.026441
O      8.50569     10.54374     17.39634         0.628173      0.034392     -0.143925
O     12.47271     10.54374      3.58206        -0.705411      0.084348      0.094621
O     12.47271     10.43466     17.39634        -0.437834      0.024950     -0.108952
O      3.58206      8.50569     10.43466         0.178361      1.040210     -0.040422
O     17.39634      8.50569     10.54374        -0.160059      0.539968      0.075880
O      3.58206     12.47271     10.54374         0.085542     -0.369027      0.049155
O     17.39634     12.47271     10.43466        -0.156672     -0.546482     -0.022825
O      3.58206     10.43466      8.50569         0.078062     -0.066842      0.591811
O     17.39634     10.54374      8.50569        -0.110517      0.066059      0.525082
O      3.58206     10.54374     12.47271         0.043077      0.047619     -0.521489
O     17.39634     10.43466     12.47271        -0.222766     -0.038269     -0.605237
O     10.43466      8.50569      3.58206        -0.039684      0.455234      0.136206
O     10.54374      8.50569     17.39634         0.050108      0.530876     -0.159211
O     10.54374     12.47271      3.58206         0.002923     -1.018717      0.204063
O     10.43466     12.47271     17.39634         0.041548     -0.725582     -0.175325
O      8.50569      3.58206     10.43466         0.508743      0.146177     -0.055496
O      8.50569     17.39634     10.54374         0.487549     -0.196387      0.014589
O     12.47271      3.58206     10.54374        -0.632701      0.230191      0.010539
O     12.47271     17.39634     10.43466        -0.221780      0.067460     -0.054756
O     11.90042     11.90042     19.56718        -0.239584     -0.290115      0.247435
O     19.56718     19.56718     19.56718         0.310710      0.295029      0.301056
O     19.56718     11.90042     11.90042         0.291509     -0.264565     -0.233327
O     11.90042     19.56718     11.90042        -0.241462      0.290378     -0.330155
O      9.45224      1.03696      9.45224        -0.019184      0.088009     -0.073167
O      1.03696      9.45224      9.45224         0.091531     -0.092378     -0.136907
O      1.03696      1.03696      1.03696         0.090245      0.188919      0.050323
O      9.45224      9.45224      1.03696        -0.108537     -0.103708      0.034173
Zr     10.48920      2.52580     10.48920        -0.127551     -0.287216     -0.037112
Zr     10.48920     18.45260     10.48920        -0.075387      0.215171      0.081620
Zr     10.48920     10.48920      2.52580         0.030980     -0.402196     -0.256137
Zr     10.48920     10.48920     18.45260        -0.278693     -0.091594      0.322297
Zr      2.52580     10.48920     10.48920        -0.379781      0.240659      0.290942
Zr     18.45260     10.48920     10.48920         0.236356     -0.004131     -0.224953
Pd     13.60855      8.97409      9.22504         0.001166      0.006451     -0.005799
Pd      5.62902      9.87506     10.14135        -0.000366     -0.004209     -0.001303
Pd      6.77801     11.85711     11.71027        -0.002374     -0.003677     -0.001335
Pd     12.05915     13.00750      7.37290         0.002305     -0.003464     -0.005289
Pd     11.88035      7.73823      7.46507        -0.001648      0.001377     -0.002738
Pd      8.31318      6.84996      6.57721         0.003287     -0.001588     -0.013411
Pd     10.62977     11.17251      5.64741        -0.014708     -0.000949      0.000381
Pd     14.39715      8.55073      6.74420         0.001442     -0.001459     -0.004276
Pd      9.67486     11.72672      8.12586        -0.003883      0.003669      0.004265
Pd      6.75774      6.79626     12.32427        -0.008605     -0.001110      0.004157
Pd      6.54556      8.09114      8.03351         0.016993      0.045660     -0.037353
Pd      6.53294      8.49904     14.36020        -0.004484     -0.003440      0.008988
Pd     11.49724      6.52510      9.94634        -0.003894     -0.001635     -0.000057
Pd      9.50535      9.19991      7.15001        -0.010343      0.000329      0.005170
Pd      8.97978     13.98409      9.32899        -0.000061      0.003614      0.006746
Pd      9.46691      7.37211     11.72414        -0.008678     -0.000136     -0.008081
Pd     10.61944      8.98217      9.68607         0.001815     -0.006102      0.000271
Pd      9.33950     11.53859     10.71150        -0.000092      0.008206      0.007066
Pd      8.89692      7.05508      9.14470        -0.010164      0.007413     -0.010544
Pd      8.55325      6.57895     14.24631        -0.000584     -0.001651     -0.003409
Pd      7.64805      9.33276     11.99214        -0.007094     -0.003338      0.011289
Pd     11.96822     10.37938      7.72680        -0.007444     -0.000466     -0.001288
Pd      7.13098     12.01233      9.06472        -0.000451      0.001815      0.001818
Pd      8.12946      9.60883      9.39794         0.003917      0.006076      0.019992
Pd     14.02060      6.49218      8.51908        -0.001848      0.003071      0.001164
Pd     12.62287      8.39755     11.58277         0.001086      0.005175     -0.005401
Pd      8.77046     11.57639     13.40565        -0.004704     -0.000297      0.003662
Pd     13.88882     11.93691      8.96420        -0.003360     -0.007758      0.002622
Pd     12.95516     10.70148     13.06470        -0.006154      0.001583      0.004021
Pd     14.78953     10.44868     11.10372        -0.006651     -0.003885      0.005607
Pd     12.07557     10.90046     10.52936        -0.006090     -0.001549      0.003871
Pd     11.44032     13.35260      9.93787         0.001526     -0.004930     -0.005255
Pd     13.60177     12.92553     11.62823        -0.002050     -0.002424     -0.000931
Pd     11.12301     12.61218     12.53963        -0.003576      0.003910      0.001203
Pd     10.95551     11.05928     14.81475        -0.004009      0.001502      0.003039
Pd     10.51715      9.73818     12.38197        -0.005084     -0.004300      0.000678
Pd      9.08607      9.14256     14.41886        -0.001405     -0.000910      0.005514
Pd      8.82542     13.85289     12.02395        -0.007424      0.003115      0.007471
