152
# total energy = -1004.40989851 eVH     10.35389      5.87395      7.64558        -0.126186      0.137227      0.644937
H     10.62451     15.10445      7.64558        -0.169405     -0.169202      0.562135
H     10.62451      5.87395     13.33282         0.396656      0.033283     -0.862960
H     10.35389     15.10445     13.33282         0.056298     -0.177080     -0.504536
H      7.64558     10.35389      5.87395         0.360953      0.044354      0.149738
H      7.64558     10.62451     15.10445         0.881563      0.596200      0.004877
H     13.33282     10.62451      5.87395        -0.452313      0.041901      0.192207
H     13.33282     10.35389     15.10445        -0.816170     -0.236755      0.036659
H      5.87395      7.64558     10.35389         0.169195      1.721291      0.126237
H     15.10445      7.64558     10.62451        -0.076514      0.493999      0.248939
H      5.87395     13.33282     10.62451         0.204027     -0.571635     -0.011872
H     15.10445     13.33282     10.35389         0.201062     -1.315607     -0.441064
H      5.87395     10.35389      7.64558         0.140196      0.035495      0.502083
H     15.10445     10.62451      7.64558        -0.215923      0.892839      1.407698
H      5.87395     10.62451     13.33282        -0.034343      0.560700     -1.268743
H     15.10445     10.35389     13.33282         0.111440     -0.219919     -0.805787
H     10.35389      7.64558      5.87395         0.307275      1.261232      0.138503
H     10.62451      7.64558     15.10445         0.509492      0.756493     -0.097521
H     10.62451     13.33282      5.87395        -0.512909     -0.715277      0.309747
H     10.35389     13.33282     15.10445        -0.232081     -0.506150     -0.327889
H      7.64558      5.87395     10.35389         1.194484     -0.239533     -0.092081
H      7.64558     15.10445     10.62451         0.827706     -0.197415     -0.027417
H     13.33282      5.87395     10.62451        -0.592598      0.120669      0.650932
H     13.33282     15.10445     10.35389        -0.493498     -0.023955     -0.208908
H     12.45634     12.45634     19.01126         0.268267      0.252422     -0.231314
H     19.01126     19.01126     19.01126        -0.266860     -0.265503     -0.221450
H     19.01126     12.45634     12.45634        -0.277528      0.255347      0.228403
H     12.45634     19.01126     12.45634         0.244156     -0.280617      0.239824
C     10.35284      5.61067      6.59456        -0.150252     -0.789256     -0.442831
C     10.62556     15.36773      6.59456         0.092616      0.256382     -0.248041
C     10.62556      5.61067     14.38384        -0.047011     -0.457031      0.569774
C     10.35284     15.36773     14.38384         0.009671      0.238291      0.487590
C      6.59456     10.35284      5.61067        -0.476324      0.045016     -0.324114
C      6.59456     10.62556     15.36773        -0.913154      0.187613      0.692012
C     14.38384     10.62556      5.61067         0.706406      0.029475     -0.958504
C     14.38384     10.35284     15.36773         0.921207     -0.126631      0.397011
C      5.61067      6.59456     10.35284        -0.902565     -1.017420     -0.519743
C     15.36773      6.59456     10.62556         0.702980     -0.031368     -0.228400
C      5.61067     14.38384     10.62556        -0.255164      0.623103      0.011026
C     15.36773     14.38384     10.35284         0.297697      1.309626      0.060242
C      5.61067     10.35284      6.59456        -0.266637      0.010018     -0.682261
C     15.36773     10.62556      6.59456         0.474760     -0.381286     -0.983375
C      5.61067     10.62556     14.38384        -0.456041     -0.024234      0.914467
C     15.36773     10.35284     14.38384         0.492911     -0.072788      0.982164
C     10.35284      6.59456      5.61067        -0.122986     -0.907152     -0.371084
C     10.62556      6.59456     15.36773         0.102954     -0.729903      0.493240
C     10.62556     14.38384      5.61067         0.150109      1.086424     -0.349453
C     10.35284     14.38384     15.36773        -0.019156      1.025534      0.487848
C      6.59456      5.61067     10.35284        -0.563539     -1.242126      0.070986
C      6.59456     15.36773     10.62556        -0.966635      0.181927      0.104363
C     14.38384      5.61067     10.62556        -0.132877     -0.485039     -0.295131
C     14.38384     15.36773     10.35284         0.234920      0.592887     -0.072010
C     10.40319      3.19606      7.29314         0.006343      0.842027     -0.555859
C     10.35913      4.25547      6.23373         0.034966     -0.527040      0.134055
C      0.08601      7.29314      7.29314        -0.025459     -0.984250     -0.233172
C      0.13007      6.23373      6.23373        -0.078371      0.363817      0.318504
C      0.08601      3.19606      3.19606         0.053341      1.296955      0.146521
C      0.13007      4.25547      4.25547        -0.020143     -0.328387     -0.419282
C     10.40319      7.29314      3.19606        -0.008087     -0.511498      0.255396
C     10.35913      6.23373      4.25547        -0.024650      0.124717     -0.701810
C      7.29314     10.40319      3.19606        -0.327179      0.023733      0.451410
C      6.23373     10.35913      4.25547         0.224316      0.093078     -0.106343
C      7.29314      0.08601      7.29314        -1.023196     -0.092252     -0.395298
C      6.23373      0.13007      6.23373         0.659460     -0.192640      0.437795
C      3.19606      0.08601      3.19606         1.171138     -0.020524      0.367666
C      4.25547      0.13007      4.25547        -0.652521     -0.159857     -0.207191
C      3.19606     10.40319      7.29314         0.561207      0.029178     -0.321172
C      4.25547     10.35913      6.23373        -0.242991      0.103974      0.219695
C      3.19606      7.29314     10.40319         0.328357     -0.795529      0.038066
C      4.25547      6.23373     10.35913        -1.086980      0.107925      0.181509
C      7.29314      7.29314      0.08601        -0.467420     -0.499916     -0.014457
C      6.23373      6.23373      0.13007         0.481368      0.311017      0.008881
C      3.19606      3.19606      0.08601         0.539260      0.403390     -0.020248
C      4.25547      4.25547      0.13007        -0.021942     -0.729695     -0.098345
C      7.29314      3.19606     10.40319        -0.390071      0.505785      0.054676
C      6.23373      4.25547     10.35913         0.563020     -0.718939      0.206770
O     10.43466      3.58206      8.50569         0.008339      0.097568      0.519219
O     10.54374     17.39634      8.50569         0.053625     -0.026011      0.281772
O     10.54374      3.58206     12.47271        -0.003768     -0.077968     -0.145789
O     10.43466     17.39634     12.47271        -0.037296     -0.124630     -0.458218
O      8.50569     10.43466      3.58206         0.438024     -0.030030      0.073429
O      8.50569     10.54374     17.39634         0.829218     -0.059003     -0.158654
O     12.47271     10.54374      3.58206        -0.879771      0.127913      0.100775
O     12.47271     10.43466     17.39634        -0.602240      0.024629     -0.158761
O      3.58206      8.50569     10.43466         0.190768      0.827777     -0.018083
O     17.39634      8.50569     10.54374        -0.152344      0.674762      0.034040
O      3.58206     12.47271     10.54374         0.108424     -0.545827      0.053203
O     17.39634     12.47271     10.43466        -0.169017     -0.604972     -0.042163
O      3.58206     10.43466      8.50569         0.079493     -0.053572      0.438066
O     17.39634     10.54374      8.50569         0.030274      0.093400      0.389105
O      3.58206     10.54374     12.47271        -0.018596      0.026987     -0.297547
O     17.39634     10.43466     12.47271        -0.172802     -0.032794     -0.604911
O     10.43466      8.50569      3.58206        -0.029265      0.607112      0.168242
O     10.54374      8.50569     17.39634        -0.094666      0.800116     -0.219097
O     10.54374     12.47271      3.58206         0.108780     -0.958378      0.162376
O     10.43466     12.47271     17.39634         0.063673     -0.695759     -0.172935
O      8.50569      3.58206     10.43466         0.566602      0.141024     -0.046632
O      8.50569     17.39634     10.54374         0.549272     -0.149440      0.007807
O     12.47271      3.58206     10.54374        -0.690285      0.154412      0.017721
O     12.47271     17.39634     10.43466        -0.446366     -0.069220     -0.033085
O     11.90042     11.90042     19.56718        -0.319606     -0.287288      0.245854
O     19.56718     19.56718     19.56718         0.299099      0.311720      0.217152
O     19.56718     11.90042     11.90042         0.339244     -0.276812     -0.237407
O     11.90042     19.56718     11.90042        -0.265616      0.348699     -0.252185
O      9.45224      1.03696      9.45224        -0.028883      0.083544     -0.125385
O      1.03696      9.45224      9.45224         0.066702     -0.035325     -0.121934
O      1.03696      1.03696      1.03696         0.072554      0.097021      0.095565
O      9.45224      9.45224      1.03696        -0.049826     -0.039057      0.077491
Zr     10.48920      2.52580     10.48920        -0.067210     -0.201266      0.046695
Zr     10.48920     18.45260     10.48920         0.012461      0.069084      0.139831
Zr     10.48920     10.48920      2.52580        -0.306203     -0.374526     -0.361976
Zr     10.48920     10.48920     18.45260         0.121696      0.017778      0.390600
Zr      2.52580     10.48920     10.48920        -0.191215      0.062932     -0.039221
Zr     18.45260     10.48920     10.48920         0.176255     -0.005575      0.046736
Pd     13.00251      8.49172      9.86071        -0.125516     -0.102568     -0.074304
Pd      6.32236      9.57340     10.28994        -0.007331     -0.004032     -0.044173
Pd      6.97239     11.60228     11.77075         0.117211      0.079674      0.145463
Pd     12.37749     13.39579      7.25357        -0.052875     -0.078612      0.129891
Pd     12.14852      7.86808      7.16823        -0.092142      0.011330     -0.118749
Pd      8.47804      7.30405      6.87522         0.022743     -0.047026     -0.022465
Pd     11.42006     11.49602      5.62159        -0.112289     -0.153066     -0.080175
Pd     14.56630      8.82860      7.73501         0.020476      0.045121     -0.160062
Pd      9.88170     11.80693      7.96045         0.026605     -0.020606     -0.012813
Pd      7.06062      7.13705     12.00719        -0.060271     -0.037549     -0.043816
Pd      6.33973      7.50964      8.39092         0.027403     -0.001304      0.067445
Pd      7.22443      9.16223     13.59553         0.008156      0.108571      0.084768
Pd     11.39475      6.32040      9.23324         0.048096      0.013353      0.068093
Pd     10.01088      9.53002      6.55390         0.054617      0.024100     -0.027626
Pd      9.05903     13.97701      9.37346        -0.023723      0.034506      0.012483
Pd     10.87719      7.44891     11.48829         0.041343     -0.104337     -0.097501
Pd     10.45614      9.06424      9.25849         0.351340      0.208082     -0.023396
Pd      9.47856     11.55756     10.56938        -0.116484     -0.065036      0.012589
Pd      8.82725      7.13171      9.57226        -0.048816     -0.220024      0.081487
Pd      9.17277      7.42586     13.49549         0.054670     -0.041575      0.117878
Pd      8.73968      9.21725     11.36372        -0.083106     -0.019750      0.003843
Pd     12.26042     10.49663      7.92541        -0.118674     -0.109558      0.005356
Pd      7.25314     11.92603      9.13061         0.079634      0.068586      0.012045
Pd      8.11536      9.57964      8.35166        -0.226381      0.133239     -0.022255
Pd     13.99320      6.38433      8.51362         0.079825     -0.082454      0.031991
Pd     13.20315      8.47221     12.48213         0.047465     -0.046658     -0.133224
Pd      9.05496     11.44226     13.34699        -0.191879     -0.111486     -0.076382
Pd     13.93729     12.11692      8.96374         0.042097      0.030616      0.071021
Pd     13.19570     11.12932     13.15390        -0.132004      0.007346      0.062288
Pd     14.62651     10.36222     10.89434         0.071287      0.010354      0.022897
Pd     12.00215     10.75657     10.70622        -0.101384     -0.031322      0.129873
Pd     11.54528     13.20979      9.72875         0.002556      0.136502     -0.051655
Pd     13.63522     13.05485     11.52313         0.137509      0.144215     -0.027550
Pd     11.16847     12.78846     12.35704        -0.111867     -0.030534      0.168997
Pd     11.22938     11.57987     14.86591         0.106363      0.073845     -0.002687
Pd     10.94120      9.66601     12.91807        -0.056898      0.087139     -0.025365
Pd      9.53392      9.55913     15.21986        -0.082619     -0.096399     -0.012132
Pd      8.69570     13.74466     12.03972         0.041243      0.016357     -0.068693
